BEGIN NEW DATA CASE                                                             
C     BENCHMARK DC-30                                                           
C     Modeling of circuit-breaker restrike using  a  valve  that  is  under TACS    
C     control.   The basic electric network model apparently comes from one Carl     
C     Solver of  CIGRE WG 13.02,  as pointed out by John D. Sakellariou  of  the
C     Public Power Corporation in Athens, Greece.  I  (W. Scott Meyer)  inserted            
C     valve and TACS modeling during September of 1977.   The user should extend
C     TMAX  to 1.5 milliseconds in order to see more (including a 3rd restrike).
C     This 1st of 8 subcases uses TACS.  See the 3rd of 8 for the use of MODELS.
C     The 7th of 8 produces the same answer faster using secret relay modeling.
  1.0E-6  3.0E-3
       1       1       1       1       1      -1                                
       5       5      20      20     100     100                                
TACS HYBRID
 1DUMMY   +UNITY                                                                
       1.0                                                                      
       1.0    0.5E-3                                                            
90BUS2                                                                          
90BUS3   
99VSW     =  BUS2  -  BUS3                                      
99DRIVE   =  ABS(VSW)                                                  
99BREAK   =  1.5E+8 * TIMEX + 1.0E+5                        
C 99DRIVE   =  ABS(VSW) + 0.0                                                 
C 98DRIVE   = 0.4 * ( ABS(VSW) + 1.E-6 ) ** 3.0 * 2.0
C 99BREAK   =  150000000.0 * TIMEX + 100000.0                        
98GRID  51+UNITY                                                    BREAK DRIVE 
33DUMMY TIMEX UNITY BUS2  BUS3  VSW   DRIVE BREAK GRID  
BLANK card ends all TACS data
  GEN   BUS1                       15.                                          
  BUS1                                   2.9                                    
  BUS1  BUS2                       0.1                                          
  BUS2                                   0.1                                    
  BUS3                                  .017                                    
  BUS3                            490.                                          
  BUS2  BUS2R              24.34                                                
  BUS3  BUS3R BUS2  BUS2R                                                       
BLANK card terminates electric network branches
  BUS2  BUS3         -1.                1.E9                                   2
C       The following card serves  to  name the switch following it.  To see the
C       results of this activity,  interactively execute the "SWITCH" command of 
C       SPY,  sending  "EXTRA"  for the alternative table.   Another point: note
C       the exclamation point, which is needed to hold lower case within A6 name
C       (assuming  KINSEN = 1  within STARTUP).   
  NAME: Valve  !  { Request "NAME: " of cols. 3-8 precedes A6 valve name in 9-14
11BUS2R BUS3R                  20.                              GRID          13
BLANK card ends all switches
14GEN         66500.       50.   -2.0508                           -1.          
BLANK card terminates electric network sources
C       Total network loss  P-loss  by summing injections =  -1.885346136987E-07
C             Note: preceding loss figure is meaningless since phasor network is
C                   lossless.  This is floating zero compared with  MVA = 1.2E8.
C                                Output for steady-state phasor switch currents.
C         Node-K    Node-M            I-real            I-imag            I-magn 
C       BUS2      BUS3       -1.50498397E+01   -4.20286729E+02    4.20556099E+02   
C       BUS2R     BUS3R                 Open              Open              Open   
C
C  GEN    66457.406175675           66500.      -12.86413577453  359.47829718693 
C         -2379.740406308       -2.0508000       -359.248048233      -92.0508000
C
C  Step    Time      BUS2       BUS2R      BUS3R      BUS2R      BUS3       BUS2 
C                    BUS3       BUS3R                                                                        BUS3R      DUMMY 
C
C                    TACS       TACS       TACS       TACS       TACS       TACS
C                   TIMEX      UNITY      BUS2       BUS3       VSW        DRIVE  
C ***      Phasor I(0) = -1.5049840E+01   Switch  "BUS2  "  to  "BUS3  "  closed
C   0     0.0         0.0        0.0 64751.3498 64751.3498 64751.3498 64751.3498
C                     0.0        1.0        0.0        0.0        0.0        0.0 
C ***          Open  switch  "BUS2  "  to  "BUS3  "  after  1.00000000E-06  sec.
C   1   .1E-5         0.0        0.0 64752.0751 64752.0751 64752.0751 64752.0751
C                   .1E-5        1.0 64752.0751 64752.0751        0.0        0.0 
 1                                        { Request for all node voltage outputs                                          
C            Valve   "BUS2R "  to  "BUS3R "  closing after  3.09000000E-04  sec.
C            Valve   "BUS2R "  to  "BUS3R "  opening after  3.22000000E-04  sec.
C            Valve   "BUS2R "  to  "BUS3R "  closing after  4.97000000E-04  sec.
C            Valve   "BUS2R "  to  "BUS3R "  opening after  5.09000000E-04  sec.
C Last step: 3000  .003  122346.542 122346.542 -88693.149 33653.3927  -88693.149
C Last step: .003  1.0 33653.3927 -88693.149 122346.542  122346.542  550000. 0.0
C Variable max:177392.698 177392.698 102764.956 84422.9848 102764.956 84422.9848
C                    .003        1.0 84422.9848 102764.956 177392.698 177392.698 
C Times of max:   .497E-3    .497E-3     .83E-4    .478E-3     .83E-4    .478E-3 
C                    .003        0.0    .478E-3     .83E-4    .497E-3    .497E-3 
C Variable min:-54570.793 -54570.793 -93851.678 13809.9875 -93851.678 33212.9087
C                     0.0        1.0        0.0 -93851.678 -54570.793        0.0 
C Times of min:   .002745    .002745    .497E-3     .31E-3    .497E-3    .002982 
C                     0.0        0.0        0.0    .497E-3    .002745        0.0 
  PRINTER PLOT                                                                  
 184 .1 0.0 1.0         BUS2  BUS3               { Axis limits: (-0.386,  1.774)                                        
BLANK card ending plot cards
BEGIN NEW DATA CASE
C     2nd  of  8  subcases  illustrates the modeling of a transistor using TACS.
C     This is as described by its inventor, Naoto Nagaoka, in his paper entitled 
C     "Large-signal transistor modeling using the ATP version of  EMTP,"   which 
C     appeared in the September, 1988, issue of EMTP News.  See Sect. IV example
 .000010    .003       { Note larger time step (10 times that of paper's graphs)
       1       1       1       1       1      -1
       5       5      20      20      50      50
TACS HYBRID
91BASEX        { Transistor base current is passed from electric network to TACS
90COLL    { Transistor collector voltage is passed from electric network to TACS
90EMIT      { Transistor emitter voltage is passed from electric network to TACS
88VCE     = COLL - EMIT  
88NZERO   = 1.E-12
88BASEC263 NZERO   BASEX                                   1.0
88COLLCU  = BASEC2 * 200. -0.25E-3 + VCE * ( BASEC2**0.947 ) /  1.352
88EQUIV1  = VCE    / COLLCU 
88TEMPR   = 100.
98EQUIVR63 TEMPR   EQUIV1                                  1.0
33EQUIVR
77EQUIVR       2775.        { Initial condition matches R during phasor solution 
BLANK card ending all TACS data cards
91COLL  EMIT  TACS  EQUIVR                                                     3
  NONLIN NAME:Type92   ! { Even tho name could go on next card, use this instead
92BASE  EMIT                           4444.
                  -1.0E-3                   -10.E3
                      0.0                      0.0
                   0.1E-6                    0.584
                   1.0E-6                    0.613
                   3.0E-6                    0.647
                   5.0E-6                    0.664
                  10.0E-6                    0.682
                  20.0E-6                    0.706
                  30.0E-6                    0.711
                     9999
  VCC   COLL               3900.                                               1
  COLL  OUT                           3.0000
  OUT                      2200.
  EMIT                    820.00
        EMIT                          10.000
  VCC   BASEX             55000.
  BASEX                   12000.
  SINE  BASEX                            3.0
  SINE                     2000.
  COLL  EMIT  NAME  PHASOR 2780.  { R(0) = 2780 ohms is present for  t < 0  only
BLANK card terminates all branch cards
  BASEX BASE                                          MEASURING                1
BLANK card terminates all switch cards
14VCC           12.0       .01  { dc power supply (collector) }    -1.
14SINE        40.E-3     1000.      -90.    { Amplifier input is 1 KHz sine wave                       
BLANK card terminates source cards of electric network
C       Total network loss  P-loss  by summing injections =   1.067463086805E-02
C     Node-K    Node-M            I-real            I-imag                I-magn 
C      BASEX     BASE         0.00000000E+00    1.05879118E-22    1.05879118E-22 
C Gen: VCC     12.     12.    .00177910514467   .0017791052761   .01067463086805
C Gen:         0.0     0.0    .68384076675E-6        0.0220230   -.4103044601E-5 
  OUT   COLL  EMIT  BASEX SINE  
C  Step    Time      COLL       OUT        COLL       EMIT       BASEX      SINE
C                    EMIT           
C  ***   Phasor I(0) =  0.0000000E+00     Switch  "BASEX "  to  "BASE  "  closed
C   0     0.0   4.4479989 .197916E-5 5.75999803 1.31199913 2.14924482 .180994E-5 
C   1   .1E-4  4.44521153 -.00263941 5.75735464 1.31214311 2.15127714 .002511621
C   2   .2E-4  .444370671 -3.9987412 1.75822147  1.3138508 2.15282414 .005013329
C   3   .3E-4  .443906636 -3.9900316 1.76087902 1.31697238 2.15435666 .007495253 
BLANK ending output specification cards
C  300   .003  2.38611281 -1.6984961  3.8051742 1.41906139 2.11753544 .16073E-14 
C    maxima :  5.90958724 1.87782143 7.34957934 1.47345869 2.17056873        .04 
C Times max :      .00168     .00266     .00167     .00135      .2E-3     .25E-3 
C    minima :  .426098973 -3.9987412 1.75822147 1.31199913 2.07778426       -.04 
C Times min :      .44E-3      .2E-4      .2E-4        0.0     .00275     .75E-3 
  PRINTER PLOT
 194 .3 0.0 3.0         TACS  EQUIVR              { Axis limits: (0.000,  1.731)                                        
BLANK card ending plot cards
BEGIN NEW DATA CASE                                                             
C      3rd of 8  subcases is the same as the first except that it uses newer and
C      slower  MODELS  rather than older and faster TACS.  
  1.0E-6  3.0E-3
       1       1       1       1       1      -1
       5       5      20      20     100     100
MODELS
INPUT bus2 {v(BUS2)}, bus3 {v(BUS3)}
OUTPUT grid
MODEL dc30
 INPUT v2, v3
 VAR grid
 OUTPUT grid
 EXEC
  IF abs(v2-v3)>=1.5e8*t +1e5 THEN grid:=1 ELSE grid:=0 ENDIF
 ENDEXEC
ENDMODEL
USE dc30 AS dc30
 INPUT v2:=bus2, v3:=bus3
 OUTPUT grid:=grid
ENDUSE
RECORD
 dc30.v2 AS bus2
 dc30.v3 AS bus3
 dc30.grid AS grid
ENDMODELS
  GEN   BUS1                       15.
  BUS1                                   2.9
  BUS1  BUS2                       0.1
  BUS2                                   0.1
  BUS3                                  .017
  BUS3                            490.
  BUS2  BUS2R              24.34
  BUS3  BUS3R BUS2  BUS2R
BLANK card terminates electric network branches
  BUS2  BUS3         -1.                1.E9                                   2
11BUS2R BUS3R                  20.                              GRID          13
BLANK card ends all switches
14GEN         66500.       50.   -2.0508                           -1.
C --------------+------------------------------ 
C From bus name |  Names of all adjacent busses
C --------------+------------------------------
C GEN    |BUS1  *                                                                                                  
C BUS1   |TERRA *GEN   *BUS2  *                                                                                    
C BUS2   |TERRA *BUS1  *BUS3  *BUS2R *                                                                             
C BUS3   |TERRA *TERRA *BUS2  *BUS3R *                                                                             
C BUS2R  |BUS2  *BUS3R *                                                                                           
C BUS3R  |BUS3  *BUS2R *                                                                                           
C TERRA  |BUS1  *BUS2  *BUS3  *BUS3  *                                                                             
C --------------+------------------------------
BLANK card terminates electric network sources
C       Total network loss  P-loss  by summing injections =   9.738141670823E-08
C                                Output for steady-state phasor switch currents.
C     Node-K    Node-M            I-real            I-imag            I-magn     
C     BUS2      BUS3         -1.50498397E+01   -4.20286729E+02    4.20556099E+02   
C     BUS2R     BUS3R             Open              Open              Open       
C Gen ends: -12.86413577452  359.47829718648    -.3492459655E-9  .119526533815E8
C Gen ends: -359.2480482325      -92.0508000    .119526533815E8        0.0000000
C
C Step    Time       BUS2       BUS2R      BUS3R      BUS2R      BUS3       BUS2
C                    BUS3       BUS3R 
C 
C                    TACS       TACS   
C                    BUS3       GRID   
C ***      Phasor I(0) = -1.5049840E+01   Switch  "BUS2  "  to  "BUS3  "  closed
C    0     0.0        0.0        0.0 64751.3498 64751.3498 64751.3498 64751.3498
C                 64751.3498     0.0 
C ***          Open  switch  "BUS2  "  to  "BUS3  "  after  1.00000000E-06  sec.
C    1   .1E-5        0.0        0.0 64752.0751 64752.0751 64752.0751 64752.0751
C                 64752.0751     0.0                                                                                           
 1
C 3000   .003  122346.542 122346.542 -88693.149 33653.3927 -88693.149 33653.3927
C              -88693.149        0.0                                                                                           
C Variabl max: 177392.698 177392.698 102764.956 84422.9848 102764.956 84422.9848 
C              102764.956        1.0                                                                                       
C Times of max:   .497E-3    .497E-3     .83E-4    .478E-3     .83E-4    .478E-3 
C                  .83E-4    .309E-3                                                                                       
C Variabl min: -54570.793 -54570.793 -93851.678 13809.9875 -93851.678 33212.9087 
C              -93851.678        0.0                                                                                       
C Times of min:   .002745    .002745    .497E-3     .31E-3    .497E-3    .002982 
C                 .497E-3        0.0                                                                                       
  PRINTER PLOT
 184 .1 0.0 1.0         BUS2  BUS3               { Axis limits: (-0.386,  1.774)                                        
BLANK card ending plot cards
BEGIN NEW DATA CASE                                                             
C    4th of 8 subcases is the same as the first and the third, except that 
C    it uses both TACS and MODELS. The voltages BUS2 and BUS3 are input to TACS.
C    VSW is output from TACS and input to MODELS.  GRID is output from MODELS.
C    Compare values at t=0 with 3rd subcase.  Ending time  TMAX  should be
C    extended to 3 msec if all 3000 steps are desired.  Here,  to save time
C    (because MODELS simulates very slowly),  only 600 steps will be simulated.
C      18 January 2003,  add both the new Type-27 TACS source and the following
C      optional request for timing.  Note that the 6th subcase has the source,
C      but not the declaration.  As a result, dT-size differences will exist
C      for the signals that are passed between TACS and MODELS.
MODELS BEFORE TACS  { Reverse the default order of computation at each time step
  1.0E-6  0.6E-3
       1       1       0       0       1      -1
       5       5      20      20     100     100
TACS HYBRID
 1DUMMY   +UNITY                                                                
       1.0                                                                      
       1.0    0.5E-3                                                            
90BUS2                                                                          
90BUS3   
99VSW     =  BUS2  -  BUS3                                      
27DV     { MODELS variable DV will define Type-27 TACS source of the same name
33BUS2  BUS3  VSW   DV  
BLANK card ends all TACS data
MODELS
INPUT deltav {TACS(vsw)}
OUTPUT grid
MODEL dc30
 INPUT dv
 VAR grid
 OUTPUT grid
 EXEC
  IF abs(dv)>=1.5e8*t +1e5 THEN grid:=1 ELSE grid:=0 ENDIF
 ENDEXEC
ENDMODEL
USE dc30 AS dc30
 INPUT dv:=deltav
 OUTPUT grid:=grid
ENDUSE
RECORD
 dc30.dv AS dv
ENDMODELS
  GEN   BUS1                       15.                                          
  BUS1                                   2.9                                    
  BUS1  BUS2                       0.1                                          
  BUS2                                   0.1                                    
  BUS3                                  .017                                    
  BUS3                            490.                                          
  BUS2  BUS2R              24.34                                                
  BUS3  BUS3R BUS2  BUS2R                                                       
BLANK card terminates electric network branches
  BUS2  BUS3         -1.                1.E9                                   
C       The following card serves  to  name the switch following it.  To see the
C       results of this activity,  interactively execute the "SWITCH" command of 
C       SPY,  sending  "EXTRA"  for the alternative table.   Another point: note
C       the exclamation point, which is needed to hold lower case within A6 name
C       (assuming  KINSEN = 1  within STARTUP).   
  NAME: Valve  !  { Request "NAME: " of cols. 3-8 precedes A6 valve name in 9-14
11BUS2R BUS3R                  20.                              GRID          12
BLANK card ends all switches
14GEN         66500.       50.   -2.0508                           -1.          
BLANK card terminates electric network sources
C  First  1     output variables are electric-network voltage differences (upper voltage minus lower voltage);
C  Next   4     output variables belong to TACS (with "TACS" an internally-added upper name of pair).
C  Next   1     output variables belong to MODELS (with "MODELS" an internally-added upper name of pair).
C   Step      Time      BUS2R      TACS       TACS       TACS       TACS       MODELS
C                       BUS3R      BUS2       BUS3       VSW        DV         DV
C ***      Phasor I(0) = -1.5049840E+01                     Switch  "BUS2  "  to  "BUS3  "  closed in the steady-state.
C      0       0.0         0.0        0.0        0.0        0.0        0.0        0.0
C ***                                                             Open  switch  "BUS2  "  to  "BUS3  "  after  1.00000000E-06  sec.
C      1     .1E-5         0.0 64752.0751 64752.0751        0.0        0.0        0.0
C      2     .2E-5  -506.98951 64680.6667 65187.6562 -506.98951        0.0        0.0
C      3     .3E-5   -1509.364 64544.7937 66054.1577  -1509.364 -506.98951 -506.98951
C      4     .4E-5  -2482.2238  64430.506 66912.7297 -2482.2238  -1509.364  -1509.364
BLANK card ending node voltage request
C    300     .3E-3  139427.112 64952.7749 -74474.337 139427.112 138735.778 138735.778
C  Valve   "BUS2R "  to  "BUS3R "  closing after  3.10000000E-04  sec.
C            Valve   "BUS2R "  to  "BUS3R "  opening after  3.23000000E-04  sec.
C    400     .4E-3  80675.1617 83379.4041 2704.24245 80675.1617 77287.9568 77287.9568
C  Valve   "BUS2R "  to  "BUS3R "  closing after  4.99000000E-04  sec.
C    500     .5E-3         0.0 73856.3228  -30892.73 104749.053 178498.741 178498.741
C            Valve   "BUS2R "  to  "BUS3R "  opening after  5.03000000E-04  sec.
C    600     .6E-3  77132.9224 58368.5333 -18764.389 77132.9224 77569.8407 77569.8407
C Variable maxima : 178498.741 84889.8318 102764.956 178498.741 178498.741 178498.741
C Times of maxima :    .499E-3    .499E-3     .83E-4    .499E-3      .5E-3      .5E-3
C Variable minima : -38620.899        0.0 -93608.909 -38620.899 -38620.899 -38620.899
C Times of minima :     .85E-4        0.0    .499E-3     .85E-4     .86E-4     .86E-4
BLANK card ending plot cards
BEGIN NEW DATA CASE
C    5th of 8 subcases is the same as the 1st (using TACS only) except that 
C    it uses the pocket calculator in place of Dube's logic for supplemental
C    variables.  Answers should be identical except for roundoff error.  Since
C    the same as 1st subcase,  connectivity and phasor outputs will be omitted
C    as well as plotting.
C TACS ASSEMBLY LANGUAGE     { Temporary request for use of pocket calculator
TACS POCKET CALCULATOR       { 12 January 2001, this new line replaces preceding
  1.0E-6 .000600                                                                
       1       1       0       0       0      -1                                
       5       5      20      20     100     100                                
TACS HYBRID
 1DUMMY   +UNITY                                                                
       1.0                                                                      
       1.0    0.5E-3                                                            
90BUS2                                                                          
90BUS3   
99VSW     =  BUS2  -  BUS3                                      
99DRIVE   =  ABS(VSW)                                                  
99BREAK   =  1.5E+8 * TIMEX + 1.0E+5                        
98GRID  51+UNITY                                                    BREAK DRIVE 
33DUMMY TIMEX UNITY BUS2  BUS3  VSW   DRIVE BREAK GRID  
BLANK card ends all TACS data
  GEN   BUS1                       15.                                          
  BUS1                                   2.9                                    
  BUS1  BUS2                       0.1                                          
  BUS2                                   0.1                                    
  BUS3                                  .017                                    
  BUS3                            490.                                          
  BUS2  BUS2R              24.34                                                
  BUS3  BUS3R BUS2  BUS2R                                                       
BLANK card terminates electric network branches
  BUS2  BUS3         -1.                1.E9                                   2
  NAME: Valve  !  { Request "NAME: " of cols. 3-8 precedes A6 valve name in 9-14
11BUS2R BUS3R                  20.                              GRID          13
BLANK card ends all switches
14GEN         66500.       50.   -2.0508                           -1.          
BLANK card terminates electric network sources
 1                                        { Request for all node voltage outputs                                          
BLANK card ending plot cards
BEGIN NEW DATA CASE                                                             
C    6th of 8 subcases is the same as the 4th, except that it demonstrates
C    the sorting of TACS and MODELS data using  /TACS  and  /MODELS  requests.
C    Created 3 July 1998,  this should be mentioned in the July newsletter
C    (see "Furnas" or "DC-30").
C      18 January 2003,  add both the new Type-27 TACS source.  Note that the
C      4th subcase is modified similarly.  In addition,  MODELS BEFORE TACS  was
C      added to the 4th subcase, but not here.  As a result, dT-size differences
C      will exist for the signals that are passed between TACS and MODELS.
   1.E-6   5.E-6         { Only take 5 steps;  these are plenty for illustration
       1      -1
TACS HYBRID  { Request to begin TACS data appears just once
/MODELS
MODELS       { Request to begin MODELS data appears just once
C     End of fixed data.  Begin variable /-cards,  which can appear in any
C     order.  To illustrate that TACS data really will be sorted to precede
C     MODELS  data,  note that  /TACS  follows  /MODELS  in the following.
C     I.e.,  we rely on /-card sorting to correct this.  TACS  data is
C     separate and distinct from  MODELS  data just as branch data is
C     separate and distinct from switch or source data.
/MODELS
INPUT deltav {TACS(vsw)}
OUTPUT grid
MODEL dc30
 INPUT dv
 VAR grid
 OUTPUT grid
 EXEC
  IF abs(dv)>=1.5e8*t +1e5 THEN grid:=1 ELSE grid:=0 ENDIF
 ENDEXEC
ENDMODEL
USE dc30 AS dc30
 INPUT dv:=deltav
 OUTPUT grid:=grid
ENDUSE
RECORD
 dc30.dv AS dv
/TACS 
 1DUMMY   +UNITY                                                                
       1.0                                                                      
       1.0    0.5E-3                                                            
90BUS2                                                                          
90BUS3   
99VSW     =  BUS2  -  BUS3                                      
27DV     { MODELS variable DV will define Type-27 TACS source of the same name
33BUS2  BUS3  VSW   DV  
/BRANCH  
  GEN   BUS1                       15.                                          
  BUS1                                   2.9                                    
  BUS1  BUS2                       0.1                                          
  BUS2                                   0.1                                    
  BUS3                                  .017                                    
  BUS3                            490.                                          
  BUS2  BUS2R              24.34                                                
  BUS3  BUS3R BUS2  BUS2R                                                       
/SWITCH  
  BUS2  BUS3         -1.                1.E9                                   
  NAME: Valve  !  { Request "NAME: " of cols. 3-8 precedes A6 valve name in 9-14
11BUS2R BUS3R                  20.                              GRID          12
/SOURCE
14GEN         66500.       50.   -2.0508                           -1.          
/OUTPUT
C   Step      Time      BUS2R      TACS       TACS       TACS       TACS       MODELS
C                       BUS3R      BUS2       BUS3       VSW        DV         DV
C ***      Phasor I(0) = -1.5049840E+01                     Switch  "BUS2  "  to  "BUS3  "  closed in the steady-state.
C      0       0.0         0.0        0.0        0.0        0.0        0.0        0.0
C ***                                                             Open  switch  "BUS2  "  to  "BUS3  "  after  1.00000000E-06  sec.
C      1     .1E-5         0.0 64752.0751 64752.0751        0.0        0.0        0.0
C      2     .2E-5  -506.98951 64680.6667 65187.6562 -506.98951        0.0 -506.98951
C      3     .3E-5   -1509.364 64544.7937 66054.1577  -1509.364 -506.98951  -1509.364
C      4     .4E-5  -2482.2238  64430.506 66912.7297 -2482.2238  -1509.364 -2482.2238
C      5     .5E-5  -3414.3602 64348.9091 67763.2693 -3414.3602 -2482.2238 -3414.3602
C  End of /-card data.  The only thing that remains are the various blank
C  cards that terminate the various data classes.  Note the one for  MODELS
C  (optional for MODELS,  but necessary for sorting):
BLANK card terminates all TACS data
BLANK card ends all MODELS data
ENDMODELS
BLANK card ending all BRANCH cards
BLANK card ending all SWITCH cards
BLANK terminates the last SOURCE card
BLANK card ends OUTPUT variable requests
BLANK card ending all batch-mode PLOT cards
C   Comment about 6 lines above.  Note  ENDMODELS  has like the initiation
C   word MODELS:  there is only one of them,  and has nothing to do with
C   the actual modeling.  It is part of the structure in which actual data
C   is carried.  Normally,  ENDMODELS  would precede the blank card ending
C   MODELS,  but with sorting that is not possible.  /-card sorting will
C   put the actual data there.  If we raise  ENDMODELS  line by one row,
C   it would precede all real  MODELS  data,  and that would be completely
C   wrong.  So,  we put it after the blank.  Recall  MODELS  ignores blank
C   lines,  so the blank card ending MODELS is ignored.  It is essential
C   to the sorting,  but then is ignored by MODELS itself.  Since it was
C   optional, anyway, this works well.
BEGIN NEW DATA CASE
C    7th of 8 subcases is the same as the 1st (using TACS only) except that 
C    it uses secret relay modeling in place of Dube's logic for supplemental
C    variables.  Answers should be identical except for possible roundoff error
C    and the more serious logic difference between a valve and a switch.  Every