BEGIN NEW DATA CASE
C     BENCHMARK DC-68                                                           
C         Illustration of MODELS using six of Laurent Dube's simple test cases           
C         1st of 16 data subcases.  This was taken from Laurent's file  TC1.DAT.  
C         July of 1995,  this is converted to the new  MODELS STAND ALONE  by
C         adding  STAND ALONE  to the  MODELS  declaration.  Also,  all data
C         between  ENDMODELS  & batch-mode plot cards (just BLANK) was deleted.
     0.1    1.00
       1       1       1       1       1      
MODELS STAND ALONE
STORAGE integer pages:0 real pages:0 ENDSTORAGE
MODEL tc1
 VAR a
 INPUT i
 EXEC
  a:=t
 ENDEXEC
ENDMODEL
USE tc1 AS tc1a
 INPUT i:=0
ENDUSE
RECORD tc1a.a AS a
ENDMODELS
C   Step      Time      MODELS
C                       A
C      0       0.0         0.0
C      1       0.1         0.1
C      2       0.2         0.2
C      3       0.3         0.3
C      4       0.4         0.4
C      5       0.5         0.5
C      6       0.6         0.6
C      7       0.7         0.7
C      8       0.8         0.8
C      9       0.9         0.9
C     10       1.0         1.0
C  Variable maxima :       1.0
C  Times of maxima :       1.0
C  Variable minima :       0.0
C  Times of minima :       0.0
BLANK card terminating plotting
BEGIN NEW DATA CASE
C         Illustration of MODELS using six of Laurent Dube's simple test cases           
C         2nd of 16 data subcases.  This was taken from Laurent's file  TC2.DAT.  
   0.001    0.01
       1       1       1       1       1      
MODELS
INPUT elec90 {v(NOD1)}
      elec91 {i(NOD2)}
      elec93 {switch(NOD2)}
      elec94 {imssv(NOD1)}
      elec95 {imssi(NOD2)}
MODEL TC2
 INPUT i[90..95]
 VAR a[90..95]
 EXEC a[90..95]:=i[90..95] ENDEXEC
ENDMODEL
USE tc2 AS tc2
 INPUT i[90]:=elec90
       i[91]:=elec91
       i[92]:=0
       i[93]:=elec93
       i[94]:=elec94
       i[95]:=elec95
ENDUSE
RECORD tc2.a[90] AS a90
       tc2.a[91] AS a91
       tc2.a[92] AS a92
       tc2.a[93] AS a93
       tc2.a[94] AS a94
       tc2.a[95] AS a95
ENDMODELS
  NOD1  NOD2               1.00
BLANK card after last electric network branch
  NOD2                                                MEASURING
BLANK card ends switches
14NOD1        100.0       50.0      -30.                         -1.0
BLANK card after last electric network source
  NOD1
C    Step      Time      NOD1       MODELS     MODELS     MODELS     MODELS     MODELS     MODELS
C                                   A90        A91        A92        A93        A94        A95
C ***  Phasor I(0) =  8.6602540E+01    Switch  "NOD2  "  to  "      "  closed in the steady-state.
C       0       0.0  86.6025404 86.6025404 86.6025404        0.0        1.0       -50.       -50.
C       1     .1E-2  97.8147601 97.8147601 97.8147601        0.0        1.0        0.0        0.0
C       2      .002  99.4521895 99.4521895 99.4521895        0.0        1.0        0.0        0.0
C       3      .003  91.3545458 91.3545458 91.3545458        0.0        1.0        0.0        0.0
BLANK card ends selective node voltage outputs
C       8      .008  -40.673664 -40.673664 -40.673664        0.0        1.0        0.0        0.0
C       9      .009  -66.913061 -66.913061 -66.913061        0.0        1.0        0.0        0.0
C      10       .01   -86.60254  -86.60254  -86.60254        0.0        1.0        0.0        0.0
C Variable maxima :  99.4521895 99.4521895 99.4521895        0.0        1.0        0.0        0.0
C Times of maxima :        .002       .002       .002        0.0        0.0      .1E-2      .1E-2
C Variable minima :   -86.60254  -86.60254  -86.60254        0.0        1.0       -50.       -50.
C Times of minima :         .01        .01        .01        0.0        0.0        0.0        0.0
BLANK card terminating plotting
BEGIN NEW DATA CASE
PRINTED NUMBER WIDTH, 12, 2, { Keep dT loop precision the same, but 2 blank separators
C         Illustration of MODELS using six of Laurent Dube's simple test cases           
C         3rd of 16 data subcases.  This was taken from Laurent's file  TC9.DAT.  
   0.001    0.01
       1       1       1       1       0      
MODELS
OUTPUT tacs1, tacs2, arcsh, arcch, arcth
MODEL tc9
 INPUT i {dflt:0}
 VAR tacs[1..2]
 OUTPUT tacs[1..2]
 EXEC
  tacs[1]:=cos(2*pi*1000/6*t)
  tacs[2]:=sin(2*pi*1000/6*(t+startstep))
 ENDEXEC
ENDMODEL
USE tc9 AS tc9
 OUTPUT tacs1:=tacs[1]
        tacs2:=tacs[2]
ENDUSE
C  21 September 2002,  add HYPER to demonstrate corrected hyperbolic functions.
C  Previously, the inverse sinh, cosh, and tanh were missing.  Dube did not halt
C  execution, however.  Instead, he returned impossible function valu 88888.88..
C  as first reported by Orlando Hevia of Santa Fe, Argentina.  WSM corrects XPR2
C  Note the internal names such as  arcsinhyperbolic  are impractically long.
C  This is done on purpose to demonstrate Dube's flexibility in this regard.
MODEL HYPER  --  module that serves only to verify 3 inverse hyperbolic function
 VAR    arcsinhyperbolic, arccoshyperbolic, arctanhyperbolic, arg
 OUTPUT arcsinhyperbolic, arccoshyperbolic, arctanhyperbolic
EXEC
  arg := 200 * T  --  argument of 3 function usages to follow
  arcsinhyperbolic := ASINH( arg )  --  test hyperbolic arc sine over [0, 2]
    IF  arg >= 1.0    -- if arg of arc cosh is possible & arc tanh is impossible
    THEN
  arccoshyperbolic := ACOSH( arg )  --  test hyperbolic arc cosine over ...
  arctanhyperbolic := -9999.  
    ELSE  -- Alternate, if arg of arc cosh is impossible & arc tanh is possible:
  arccoshyperbolic := -9999.  
  arctanhyperbolic := ATANH( arg )  --  test hyperbolic arc tangent over ...
    ENDIF
ENDEXEC
ENDMODEL
USE HYPER AS HYPER
 OUTPUT ARCSH:=arcsinhyperbolic  --  ATP output name ARCSH is connected to internal model name
 OUTPUT ARCCH:=arccoshyperbolic  --  ATP output name ARCCH is connected  ...
 OUTPUT ARCTH:=arctanhyperbolic  --  ATP output name ARCTH is connected  ...
ENDUSE
RECORD tacs1 AS tacs1
       tacs2 AS tacs2
       arcsh AS arcsh
       arcch AS arcch
       arcth AS arcth
ENDMODELS
  NOD1  NOD2               1.00
  TACS2 NOD2               1.00
  NOD2  NOD3               1.00
BLANK card after last electric network branch
  NOD2                                                MEASURING
13NOD3                                                                TACS1   1
BLANK card ends switches
17TACS2
14NOD1        100.0       50.0                                   -1.0
60TACS2
BLANK card after last electric network source
  TACS2
C  First  1     output variables are electric-network voltage differences (upper voltage minus lower voltage);
C  Next   5     output variables belong to MODELS (with "MODELS" an internally-added upper name of pair).
C   Step      Time       TACS2       MODELS      MODELS      MODELS      MODELS      MODELS
C                                    TACS1       TACS2       ARCSH       ARCCH       ARCTH
C ***      Phasor I(0) =  1.0000000E+02                     Switch  "NOD2  "  to  "      "  closed in the steady-state.
C      0       0.0          0.0         1.0  .866025404         0.0      -9999.         0.0
C  Switch  "NOD3  "  to  "      "  closing after  1.00000000E-03  sec.
C      1     .1E-2   .866025404         0.5  .866025404   .19869011      -9999.  .202732554
C                                                Switch  "NOD3  "  to  "      "  opening after  2.00000000E-03  sec.
C      2      .002   .866025404         -.5  .56655E-15   .39003532      -9999.   .42364893
C      3      .003   .56655E-15         -1.   -.8660254  .568824899      -9999.  .693147181
BLANK card ends selective node voltage outputs
C      4      .004    -.8660254         -.5   -.8660254  .732668256      -9999.  1.09861229
C  Switch  "NOD3  "  to  "      "  closing after  5.00000000E-03  sec.
C      5      .005    -.8660254         0.5  -.1133E-14  .881373587         0.0      -9999.
C      6      .006   -.1133E-14         1.0  .866025404  1.01597313  .622362504      -9999.
C      7      .007   .866025404         0.5  .866025404  1.13798205  .867014726      -9999.
C                                                Switch  "NOD3  "  to  "      "  opening after  8.00000000E-03  sec.
C      8      .008   .866025404         -.5  .36738E-15  1.24898333  1.04696792      -9999.
C      9      .009   .36738E-15         -1.   -.8660254  1.35044074  1.19291073      -9999.
C     10       .01    -.8660254         -.5   -.8660254  1.44363548   1.3169579      -9999.
BLANK card terminating plotting
BEGIN NEW DATA CASE
PRINTED NUMBER WIDTH, 11, 1,        { Cancel preceding declaration (extra blank)
C         Illustration of MODELS using six of Laurent Dube's simple test cases
C         4th of 16 data subcases.  This was taken from Laurent's file  TC10.DAT  
     1.0     1.0
       1       1       1       1       1      
MODELS
MODEL test
COMMENT
 Provides a quick check on the use of nested pointlist functions
 for the representation of parametric curves.
 Here the parameter is the variable 'r',
 and the main functin is used as y=f(x,r)
 using a=mainfun(x) at various values of r.
ENDCOMMENT
 FUNCTION fun1 POINTLIST (-inf,inf), (0,0), (inf,-inf)
 FUNCTION fun2 POINTLIST (-inf,2*inf), (0,0), (inf,-2*inf)
 FUNCTION fun3 POINTLIST (-inf,3*inf), (0,0), (inf,-3*inf)
 FUNCTION fun4 POINTLIST (-inf,4*inf), (0,0), (inf,-4*inf)
 FUNCTION mainfun POINTLIST 
  (0,0),(1,fun1(r)),(2,fun2(r)),(3,fun3(r)),(4,fun4(r))
 FUNCTION ref(x,r):=-r*x  --Same function in its analytic form
 INPUT i
 VAR a,r
 INIT
  r:=-1
  WHILE r<5 DO
   r:=r+1
   write(' ')
   write('r:',r)
   FOR k:=0 to 3.5 by 0.5 DO
    a:=mainfun(k)
    write('  ',k,': ',a, '   ', ref(r,k))
   ENDFOR
  ENDWHILE
 ENDINIT
 EXEC
 ENDEXEC
ENDMODEL
USE test AS test
 INPUT i:=0
ENDUSE
ENDMODELS
  NOD1                     1.00
BLANK card after last electric network branch
BLANK card ends switches
14NOD1        100.0       50.0                                   -1.0
BLANK card after last electric network source
  NOD1 
BLANK card ends selective node voltage outputs
C       Step      Time       NOD1                                                                                                       
C          0       0.0        100.                                                                                                      
C          1       1.0        100.                                                                                                      
C    Variable maxima :        100.                                                                                                   
C    Times of maxima :         0.0                                                                                                   
C    Variable minima :        100.                                                                                                   
C    Times of minima :         0.0                                                                                                   
BLANK card terminating plotting
BEGIN NEW DATA CASE
C         Illustration of MODELS using six of Laurent Dube's simple test cases           
C         5th of 16 data subcases.  This was taken from Laurent's file  TC11.DAT  
     0.1    1.00
       1       1       1       1       1      
MODELS
MODEL tc11
 VAR a
 INPUT i
 EXEC
  a:=t
  write ( 'Writing a line...' )
 ENDEXEC
ENDMODEL
USE tc11 AS tc11
 INPUT i:=0
ENDUSE
RECORD tc11.a AS a
ENDMODELS
  NOD1                     1.00
BLANK card after last electric network branch
BLANK card ends switches
14NOD1        100.0       50.0                                   -1.0
BLANK card after last electric network source
  NOD1
C          Step      Time      NOD1        TACS                                                                                            
C                                            A                                                                                               
C            0       0.0        100.        0.0                                                                                           
C            1       0.1        100.        0.1                                                                                           
C            2       0.2        100.        0.2                                                                                           
C            3       0.3        100.        0.3                                                                                           
BLANK card ends selective node voltage outputs
C            9       0.9        100.        0.9                                                                                           
C           10       1.0        100.        1.0                                                                                           
C      Variable maxima :        100.        1.0                                                                                        
C      Times of maxima :         0.0        1.0                                                                                        
C      Variable minima :        100.        0.0                                                                                        
C      Times of minima :         0.0        0.0                                                                                        
BLANK card terminating plotting
BEGIN NEW DATA CASE
C         Illustration of MODELS using six of Laurent Dube's simple test cases           
C         6th of 16 data subcases.  This was taken from Laurent's file  TC13.DAT  
     0.1    1.00
       1       1       1       1       1      
MODELS
MODEL test
 INPUT i
 VAR a, b
 HISTORY b
 EXEC
  a:=b {MAX:0.7}
  b:=t
 ENDEXEC
ENDMODEL
USE test AS test
 INPUT i:=t
 HISTORY b:=t
ENDUSE
RECORD test.a AS a
ENDMODELS
  NOD1                     1.00
BLANK card after last electric network branch
BLANK card ends switches
14NOD1        100.0       50.0                                    0.0
BLANK card after last electric network source
  NOD1
C        Step      Time        NOD1       TACS                                                                                            
C                                           A                                                                                               
C           0       0.0         0.0        -.1                                                                                           
C           1       0.1        100.        0.0                                                                                           
C           2       0.2        100.        0.1                                                                                           
C           3       0.3        100.        0.2                                                                                           
C           4       0.4        100.        0.3                                                                                           
BLANK card ends selective node voltage outputs
C           9       0.9        100.        0.7                                                                                           
C          10       1.0        100.        0.7                                                                                           
C     Variable maxima :        100.        0.7                                                                                        
C     Times of maxima :         0.1        0.9                                                                                        
C     Variable minima :         0.0        -.1                                                                                        
C     Times of minima :         0.0        0.0                                                                                        
BLANK card terminating plotting
BEGIN NEW DATA CASE
C    7th of 16 subcases was added 22 August 1998 to illustrate a supplemental
C    variable that extends through column 80.  Furthermore, it is unusual in
C    that it has no blank byte to the right of the equal sign in column 11.
C    The result is easily checked since, by inspection, it has value  9 + T.
C    For background text, see the July, 1998, newsletter.  Dr. Yuan Bin called
C    our attention to this problem.  But that was not the end.  It was about a
C    year later that Carlos Mata pointed to the weakness of the correction: it
C    failed if column 80 contained a closed parenthesis.  The correction was
C    fortified March 18, 1998,  and new variable  CARLOS  confirms correct
C    operation.  Note that the values of  I1FG50  and  CARLOS  are equal.
ABSOLUTE TACS DIMENSIONS
      10      90     100      20      30     400     350      60
     .02     .10
       1       1       0       0       
TACS STAND ALONE
99I1FG00  = 1.
99I1FG02  = TIMEX
99I1FG04  = 1.
99I1FG06  = 1.
99I1FG08  = 1.
99I1FG10  = 1.
99I1FG12  = 1.
99I1FG14  = 1.
99I1FG16  = 1.
99I1FG18  = 1.
98YUAN    =I1FG00+I1FG02+I1FG04+I1FG06+I1FG08+I1FG10+I1FG12+I1FG14+I1FG16+I1FG18
98CARLOS  =I1FG00+I1FG02+I1FG04+I1FG06+I1FG08+I1FG10+I1FG12+ 1.5*(I1FG14+I1FG16)
33YUAN  CARLOS
BLANK card ending all TACS data cards
BLANK card ending plot cards
BEGIN NEW DATA CASE
C    8th of 16 subcases was added 18 August 1998 to illustrate new request words
C    that are related to repeatability of random numbers,  or lack of it.  Here
C    we illustrate repeatability, but the non-repeatable case really is the more
C    important.  If the  REPEATABLE  card below is replaced by the comment card
C    that immediately precedes it,  the new initialization of OVER8 (see the
C    October newsletter) is demonstrated.  Previously,  ATP GNU answers differed
C    from Salford and Watcom answers.  Also illustrated is no output variable,
C    with  MODELS  doing all output.  Of course,  with only 2 energizations and
C    a dummy electric network,  this is just a demonstrative shadow of the real
C    data case of interest (Gabor Furst's BACKFL.DAT).  The dominant structural
C    feature is use of  MODELS  for all output of a SYSTEMATIC data case.  There
C    _is_  a base case,  although the engineering significance is not known.
TRULY RANDOM NUMBERS     { Alternative to following card removes repeatability
REPEATABLE RANDOM NUMBERS     { English-language override of NSEED 5 lines below
C    Note about preceding:  Since the TRULY declaration is overridden by the
C    REPEATABLE  declaration,  in fact the  TRULY declaration does nothing.  But
C    it does illustrate acceptance by ATP.
PRINTED NUMBER WIDTH, 13, 2,  { Request maximum precision (for 8 output columns)
    .060    .300   { Time step is artificially large (5 steps to completion)
       1       1       1       2       1      -1                      -2
C    ISW   ITEST   IDIST    IMAX   IDICE  KSTOUT                           NSEED
       0       1       0       0       1                                       1
       5       5      20      20      { Printout frequency changes for base case
MODELS HYBRID
STORAGE integer pages:0 real pages:0 ENDSTORAGE
MODEL tc1
 VAR angle
 INPUT i
   INIT angle:=0
   ENDINIT
 EXEC
    angle:= random()
C   write('   T =',  t,  '  MODELS random() yields =', angle )  
--- Only program output within dT loop is preceding output of variable ANGLE ---
C     To preceding output,  add the energization number  KNT  to demonstrate
C     that a 4-byte integer is handled properly by XPR1 for  WRITE(.  GNU ATP
C     uses different code of IEIGHT for this than for ISTEP.  WSM, 28 Aug 2010
    write('   T =',  t,  'KNT =', atp(knt),  'MODELS random() ==>', angle )
 ENDEXEC
ENDMODEL
USE tc1 AS tc1a
 INPUT i:=0
ENDUSE
C RECORD tc1a.angle AS angle  { If activates,  variable angle becomes ATP output
ENDMODELS
  GENA  A1                    1. 
  A1                          1.                                             
  ASW1                        1.                                             
BLANK card ending branch cards
  A1    ASW1       4.E-3     .2E-3         2          SYSTEMATIC
BLANK card ending switch cards
14GENA     303.       60.         0.0                        -1.
BLANK card ending source cards
BLANK card ending output variable requests (node voltages only, here)
  PRINTER PLOT
BLANK card ending plot cards (for base case only)
BLANK card ending statistical tabulate (none possible, since no output variable)
BEGIN NEW DATA CASE
C   9th of 16 subcases is a meaningful case from Trainee Rod Price of BPA, who
C   assembled and tested the data during the summer  and  fall  of 1989.  The 
C   study  involves  the  500-kV Coulee-Raver overhead line,  and  the  model
C   includes series capacitors at Columbia.  These  capacitors  are protected 
C   by  nonlinear resistors  (ZnO modeling) that are monitored  and  bypassed 
C   using  MODELS.   To see more interesting simulation,  the  end-time  TMAX
C   should be increased to 100 msec.   Reformulated by Laurent Dube  8 Aug 91
C   following his correction of a MODELS bug for Bob Wilson at Univ. of Idaho
C   in Moscow.   It was observed that the answer of this 7-th subcase changed,
C   too (i.e., before it was wrong,  although perhaps not by much)!       
C   14 Sept 1993,  WSM  adds  $BLANK DATA  below to protect the user who has 
C   NOBLAN  of  STARTUP  equal to unity (equivalent to  $BLANK HALT  to halt if
C   a true blank card is found.   This  MODELS  data does use blank lines as 
C   comments,  and  MODELS  ignores the blanks.   The important thing is to
C   prevent EMTP data input from halting before  MODELS  receives the blanks!
C      14 October 2000,  the addition of one IF-statement to OVER16 (see 8th
C      subcase of DCNEW-16 and January, 2001, newsletter) changes the answers
C      of this subcase slightly.  To document this,  output variables are have
C      been made more relevant.  Differences follow the fault to ground.  From
C      the  .DBG  file,  the new logic is used 3 times:
C          OVER16 bypasses compensation.  J, T =  43   2.000000000000E-02
C          OVER16 bypasses compensation.  J, T =  43   3.150000000000E-02
C          OVER16 bypasses compensation.  J, T =  43   4.990000000000E-02
C      It is not surprising that the difference shows up after step 400, which
C      corresponds to that switch closure at T = 20 msec (1st of 3 uses).
C      The following comparison shows how extrema are affected only slightly:
C      Next   3     output variables are branch currents (flowing from the upper node to the lower node);
C      Next   5     output variables belong to MODELS (with "MODELS" an internally-added upper name of pair).
C      Step    Time       CR25A       CR20A       CRZ1A       MODELS      MODELS      MODELS      MODELS      MODELS
C                         CR30A       TERRA       CR20A       VCAPA       IZNA        PZNA        EZNA        GAPA
C      Old maxima :   27237.7816  15421.0962  .445513E-4  39549.6402  .445515E-4  .139454E10  .500879 E7         1.0
C      New maxima :   26931.1785  15312.52    .445513E-4  39549.6402  .445515E-4  .135464E10  .4929451E7         1.0
C      Times of both :    .03175       .0375       .0125       .0125       .0125        .028         .05       .0315
C      Old minima :   -7552.2441  -28033.65   -7291.149   -191594.73  -7291.149   .432745E-9         0.0         0.0
C      New minima :   -7466.2202  -28099.511  -7350.3614  -184341.43  -7350.3614  .432745E-9         0.0         0.0
C      Times of old :      .0378      .02865      .02815      .02815      .02815         0.0         0.0         0.0
C      Times of new :      .0378      .02865      .02805      .02805      .02805         0.0         0.0         0.0
C      About switching times, both have: Gap "CR25A "  to  "CR30A "  closing
C      after  3.15000000E-02  sec.  But openings differ by one time step:
C      Old:  Gap  "CR25A "  to  "CR30A "  opening after  4.98500000E-02  sec.
C      New:  Gap  "CR25A "  to  "CR30A "  opening after  4.99000000E-02  sec.
PRINTED NUMBER WIDTH, 12, 2,   { Cancel wider output of preceding subcase
$BLANK DATA       { Request old treatment of true blanks (not 
 .000050    .050     60.  
       1       9       1       3       1      -1
       5       5      20      20     100     100
C
MODELS HYBRID

INPUT -- declare names and function of all MODELS inputs from EMTP

        vc3a {v(CR30A)}   --   vc3a = voltage at node CR30A
        vc2a {v(CR20A)}   --   vc2a = voltage at node CR20A
        vc3b {v(CR30B)}   --   vc3b = voltage at node CR30B
        vc2b {v(CR20B)}   --   vc2b = voltage at node CR20B
        vc3c {v(CR30C)}   --   vc3c = voltage at node CR30C
        vc2c {v(CR20C)}   --   vc2c = voltage at node CR20C
        iznoa {i(CRZ2A)}  --  iznoa = current through switch at node CRZ2A
        iznob {i(CRZ2B)}  --  iznob = current through switch at node CRZ2B
        iznoc {i(CRZ2C)}  --  iznoc = current through switch at node CRZ2C

OUTPUT -- declare names of MODELS outputs to EMTP

        gapa, gapb, gapc  -- switch control signals

MODEL flash

comment ****************************************************************
*                                                                      *
*    Function: set or cancel the gap firing control signal             *
*    Inputs  : voltage and current across ZnO resistor                 *
*    Output  : the firing signal to the electrical ZnO component       *
*                                                                      *
************************************************************* endcomment

  INPUT  vcap   --  voltage difference across series caps  [Volts]
         iczn   --  ZNO current                            [Amps]

  DATA   Pset   --  power setting                          [Megajoules/msec]
         Eset   --  energy setting                         [Megajoules]
         fdel   --  firing delay                           [msec]
         fdur   --  firing duration                        [msec]
 
  VAR  power    --  power into ZnO resistor                [Watts]
       trip     --  gap firing control signal              [0 or 1]
       energy   --  energy into ZnO resistor               [Joules]
       tfire    --  time at which the gap was last fired   [sec]
 
  OUTPUT  trip

  HISTORY  INTEGRAL(power) {DFLT:0}

  INIT trip:=0
       tfire:=0
  ENDINIT

  EXEC
    ------------------------------------------------------------------
    power:=vcap*iczn
    energy:=INTEGRAL(power)
    ------------------------------------------------------------------
    IF  trip>0              -- is already firing
    AND t-tfire>fdur*1.e-3  -- has exceeded firing duration
    THEN
      trip:=0     -- cancel the firing signal
      tfire:=0    -- null the firing time
    ENDIF
    ------------------------------------------------------------------
    IF trip=0                        -- is not signaling to fire
    AND tfire=0                      -- firing condition not yet detected
    AND (    power  >= Pset * 1.e9   -- power setting exceeded
          OR energy >= Eset * 1.e6 ) -- energy setting exceeded
    THEN
      tfire:=t    -- set the firing detection time
    ENDIF
    ------------------------------------------------------------------
    IF trip=0                 -- is not signaling to fire
    AND tfire>0               -- firing condition has been detected
    AND t-tfire>=fdel*1.e-3   -- firing delay exceeded
    THEN
      trip:=1     -- set the firing signal
    ENDIF
    ------------------------------------------------------------------
  ENDEXEC

ENDMODEL  

USE flash AS flasha   ----------------------------------- PHASE A ------

  TIMESTEP MIN: 0.0005

  INPUT  vcap:=vc3a-vc2a   -- voltage across caps
         iczn:=iznoa       -- current through ZnO resistor

  DATA   Pset:= 1   -- power setting    [MJ/mS]
         Eset:= 9   -- energy setting   [MJ]
         fdel:= 4   -- firing delay     [msec]
         fdur:=20   -- firing duration  [msec]

  OUTPUT  gapa:=trip  -- passes value of 'trip' to MODELS variable 'GAPA'

ENDUSE -----------------------------------------------------------------

USE flash AS flashb   ----------------------------------- PHASE B ------

  TIMESTEP MIN: 0.0005

  INPUT  vcap:=vc3b-vc2b   -- voltage across caps
         iczn:=iznob       -- current through ZnO resistor

  DATA   Pset:= 1   -- power setting    [MJ/mS]
         Eset:= 9   -- energy setting   [MJ]
         fdel:= 4   -- firing delay     [msec]
         fdur:=20   -- firing duration  [msec]

  OUTPUT  gapb:=trip  -- passes value of 'trip' to MODELS variable 'GAPB'

ENDUSE -----------------------------------------------------------------

USE flash AS flashc   ----------------------------------- PHASE C ------

  TIMESTEP MIN: 0.0005

  INPUT  vcap:=vc3c-vc2c   -- voltage across caps
         iczn:=iznoc       -- current through ZnO resistor

  DATA   Pset:= 1   -- power setting    [MJ/mS]
         Eset:= 9   -- energy setting   [MJ]
         fdel:= 4   -- firing delay     [msec]
         fdur:=20   -- firing duration  [msec]

  OUTPUT  gapc:=trip  -- passes value of 'trip' to MODELS variable 'GAPC'

ENDUSE -----------------------------------------------------------------

RECORD  flasha.vcap   AS VCAPA       
        flasha.iczn   AS IZNA
        flasha.power  AS PZNA       