BEGIN NEW DATA CASE
C     BENCHMARK DC-9
C     A collection of 28 simple cases for testing  CASCADE LINE  as described
C     in the April, 1998, newsletter.  26th is original DC-9 prior to April, 98.
C        1st of 28 subcases is single-phase and constant parameter distributed.
C        It cascades two 100-mile sections of line,  with ZnO only at the end.
C        Series resistance is at the mid-point,  within  CASCADE LINE.
PRINTED NUMBER WIDTH, 13, 2,  { Request maximum precision (for 8 output columns)
 .000050    .020
       1       1       1       0       1      -1
      33       1      40      10     100      50
  CASCADE LINE   { Request for February, 1998 replacement of old CASCADED PI
-1SENDA RECA                .306  5.82  .012  100. { Half the length of original
       1     1             1.E-3     { Small resistor precedes line section
  REPETITION   1  { Connect another 1 section of preceding 100 miles
  STOP CASCADE   { Terminate cascading that began with  "CASCADE LINE"  request
92RECA { Type 92 is for v-i curve }   5555.  { 5555 flag is for exponentials } 1
C                    VREF                   VFLASH                    VZERO  COL
                  778000.                     -1.0                      0.0  2.0
C                    COEF                    EXPON                     VMIN
                    1250.                      26.                      0.5
                    9999.    { Bound on exponential segments (only one precedes)
BLANK card terminating branch data
BLANK card terminating all (in this case, nonexistent) switches
14SENDA      408000.       60.
BLANK card ending source data
 1
BLANK card ending plot cards
BEGIN NEW DATA CASE
C        2nd of 28 subcases is single-phase and constant-parameter distributed.
C        It cascades two 100-mile sections of line with ZnO at receiving end and
C        also at the mid-point (it is within CASCADE LINE as a shunt element).
PRINTED NUMBER WIDTH, 9, 2,  { Reduced precision
 .000050    .020
       1       1       1       0       1      -1
      33       1      40      10     100      50
92RECA { Type 92 is for v-i curve }   5555.  { 5555 flag is for exponentials }
C                    VREF                   VFLASH                    VZERO  COL
                  778000.                     -1.0                      0.0  2.0
C                    COEF                    EXPON                     VMIN
                    1250.                      26.                      0.5
                    9999.    { Bound on exponential segments (only one precedes)
  CASCADE LINE   { Request for February, 1998 replacement of old CASCADED PI
-1SENDA RECA                .306  5.82  .012  100. { 1/4 the length of original
92     1     0RECA           { Copy Type-92 ZnO at the receiving end
  REPETITION   1  { Connect another 1 section of preceding 100 miles
  STOP CASCADE   { Terminate cascading that began with  "CASCADE LINE"  request
BLANK card terminating branch data
BLANK card terminating all (in this case, nonexistent) switches
14SENDA      408000.       60.
BLANK card ending source data
 1
 144 2. 0.0 20.         RECA  RECA01
BLANK card ending plot cards
BEGIN NEW DATA CASE
C        3rd of 28 subcases is the 1st,  except that 4 sections of 50
C        miles are used rather than 2 sections of 100 miles.   Also, series
C        resistance has been made sizable (10 ohms rather than .001 ohms).
PRINTED NUMBER WIDTH, 9, 2,  { Reduced precision
 .000050    .020
       1       1       1       0       1      -1
      33       1      40      10     100      50
  CASCADE LINE   { Request for February, 1998 replacement of old CASCADED PI
-1SENDA RECA                .306  5.82  .012   50. { 1/4 the length of original
       1     1             1.E+1     { Small resistor precedes line section
  REPETITION   3  { Connect another 3 sections of preceding 50 miles
  STOP CASCADE   { Terminate cascading that began with  "CASCADE LINE"  request
92RECA { Type 92 is for v-i curve }   5555.  { 5555 flag is for exponentials } 1
C                    VREF                   VFLASH                    VZERO  COL
                  778000.                     -1.0                      0.0  2.0
C                    COEF                    EXPON                     VMIN
                    1250.                      26.                      0.5
                    9999.    { Bound on exponential segments (only one precedes)
BLANK card terminating branch data
BLANK card terminating all (in this case, nonexistent) switches
14SENDA      408000.       60.
BLANK card ending source data
 1
 194 2. 0.0 20.         RECA
BLANK card ending plot cards
BEGIN NEW DATA CASE
C        4th of 28 subcases is like 1st,  except that the line is 3-phase rather
C        than single phase.  Still constant-parameter distributed, each phase
C        has a very small resistor in series at the mid-point.  The receiving
C        end has 3 compensation-based surge arresters as in DC-38.
PRINTED NUMBER WIDTH, 10, 2,  { Reduced precision
 .000050    .020
       1       1       1       0       1      -1
      30      10     100      50
  CASCADE LINE   { Request for February, 1998 replacement of old CASCADED PI
-1SENDA RECA              .305515.8187.01210  100.  0      { 200-mile, constant-
-2SENDB RECB              .031991.5559.01937  100.  0      { parameter,  3-phase
-3SENDC RECC                                                { transmission line.
       1     1             1.E-3     { Small resistor precedes line section
       2     2             1.E-3     { Small resistor precedes line section
       3     3             1.E-3     { Small resistor precedes line section
  REPETITION   1  { Connect another 1 sections of preceding 100 miles
  STOP CASCADE   { Terminate cascading that began with  "CASCADE LINE"  request
92RECA                                5555. { 1st card of 1st of 3 ZnO }       1
C                    VREF                   VFLASH                    VZERO  COL
                  778000.                     -1.0                      0.0  4.0
C                    COEF                    EXPON                     VMIN
                     625.                      26.                      0.5
                    9999.
92RECB        RECA                    5555.       { Phase "b" ZnO is copy of "a"
92RECC                                4444.  { Phase "c" ZnO is piecewise-linear
C                    VREF                   VFLASH                    VZERO
                      0.0                     -1.0                      0.0
                      1.0                  582400.   { First point of i-v curve.
                      2.0                  590800.   { Data is copied from DC-39
                      5.0                  599200.   { which was used to  create
                      10.                  604800.   { the ZnO branch cards that
                      20.                  616000.   { are used in phases "a"  &
                      50.                  630000.   { "b".  But  there  is some
                     100.                  644000.   { distortion due to the use
                     200.                  661920.   { of linear rather than the
                     500.                  694400.   { more accurate exponential
                    1000.                  721280.   { modeling, of course.
                    2000.                  756000.
                    3000.                  778400.   { Last point of  i-v curve.
                    9999.       { Terminator for piecewise-linear characteristic
BLANK card follows the last branch card
BLANK line terminates the last (here, nonexistent) switch
14SENDA      408000.       60.       0.0    { 1st of 3 sources.   Note balanced,
14SENDB      408000.       60.     -120.    { three-phase, sinusoidal excitation
14SENDC      408000.       60.      120.    { with no phasor solution.
BLANK card ending source data
C                       Exclamation point holds lower case of following, note:
  RECA01RECa01RECA  RECB01RECb01RECB  RECC01RECc01RECC  SENDA !
BLANK card terminating names of node voltage outputs
 194 2. 0.0 20.         RECA
BLANK card ending plot cards
BEGIN NEW DATA CASE
C        5th of 28 subcases is like preceding except that lumped elements are
C        shunt-connected rather than series,  from conductors to ground.
PRINTED NUMBER WIDTH, 10, 2,  { Reduced precision
 .000050    .020
       1       1       1       0       1      -1
      30      10     100      50
  CASCADE LINE   { Request for February, 1998 replacement of old CASCADED PI
-1SENDA RECA              .305515.8187.01210  100.  0      { 200-mile, constant-
-2SENDB RECB              .031991.5559.01937  100.  0      { parameter,  3-phase
-3SENDC RECC                                                { transmission line.
       1     0                         1.E-3 { Capacitance to neutral
       2     0                         1.E-3 
       3     0                         1.E-3 
  REPETITION   1  { Connect another 1 sections of preceding 100 miles
  STOP CASCADE   { Terminate cascading that began with  "CASCADE LINE"  request
92RECA                                5555. { 1st card of 1st of 3 ZnO }       1
C                    VREF                   VFLASH                    VZERO  COL
                  778000.                     -1.0                      0.0  4.0
C                    COEF                    EXPON                     VMIN
                     625.                      26.                      0.5
                    9999.
92RECB        RECA                    5555.       { Phase "b" ZnO is copy of "a"
92RECC                                4444.  { Phase "c" ZnO is piecewise-linear
C                    VREF                   VFLASH                    VZERO
                      0.0                     -1.0                      0.0
                      1.0                  582400.   { First point of i-v curve.
                      2.0                  590800.   { Data is copied from DC-39
                      5.0                  599200.   { which was used to  create
                      10.                  604800.   { the ZnO branch cards that
                      20.                  616000.   { are used in phases "a"  &
                      50.                  630000.   { "b".  But  there  is some
                     100.                  644000.   { distortion due to the use
                     200.                  661920.   { of linear rather than the
                     500.                  694400.   { more accurate exponential
                    1000.                  721280.   { modeling, of course.
                    2000.                  756000.
                    3000.                  778400.   { Last point of  i-v curve.
                    9999.       { Terminator for piecewise-linear characteristic
BLANK card follows the last branch card
BLANK line terminates the last (here, nonexistent) switch
14SENDA      408000.       60.       0.0    { 1st of 3 sources.   Note balanced,
14SENDB      408000.       60.     -120.    { three-phase, sinusoidal excitation
14SENDC      408000.       60.      120.    { with no phasor solution.
BLANK card ending source data
 1
 194 2. 0.0 20.         RECA
BLANK card ending plot cards
BEGIN NEW DATA CASE
C        6th of 28 subcases is like preceding except that shunt-connected lumped
C        elements are more involved.  One dummy node (value -1) is used
C        as well as ground (value 0) and the conductors (values 1, 2, 3).
PRINTED NUMBER WIDTH, 10, 2,  { Reduced precision
 .000050    .020
       1       1       1       0       1      -1
      30      10     100      50
  CASCADE LINE   { Request for February, 1998 replacement of old CASCADED PI
-1SENDA RECA              .305515.8187.01210  100.  0      { 200-mile, constant-
-2SENDB RECB              .031991.5559.01937  100.  0      { parameter,  3-phase
-3SENDC RECC                                                { transmission line.
       1    -1                         1.E-3 { Capacitance to neutral
       2    -1                         1.E-3 
       3    -1                         1.E-3 
      -1     0             1.E-3             { Resistance from neutral to earth
  REPETITION   1  { Connect another 1 sections of preceding 100 miles
  STOP CASCADE   { Terminate cascading that began with  "CASCADE LINE"  request
92RECA                                5555. { 1st card of 1st of 3 ZnO }       1
C                    VREF                   VFLASH                    VZERO  COL
                  778000.                     -1.0                      0.0  4.0
C                    COEF                    EXPON                     VMIN
                     625.                      26.                      0.5
                    9999.
92RECB        RECA                    5555.       { Phase "b" ZnO is copy of "a"
92RECC                                4444.  { Phase "c" ZnO is piecewise-linear
C                    VREF                   VFLASH                    VZERO
                      0.0                     -1.0                      0.0
                      1.0                  582400.   { First point of i-v curve.
                      2.0                  590800.   { Data is copied from DC-39
                      5.0                  599200.   { which was used to  create
                      10.                  604800.   { the ZnO branch cards that
                      20.                  616000.   { are used in phases "a"  &
                      50.                  630000.   { "b".  But  there  is some
                     100.                  644000.   { distortion due to the use
                     200.                  661920.   { of linear rather than the
                     500.                  694400.   { more accurate exponential
                    1000.                  721280.   { modeling, of course.
                    2000.                  756000.
                    3000.                  778400.   { Last point of  i-v curve.
                    9999.       { Terminator for piecewise-linear characteristic
BLANK card follows the last branch card
BLANK line terminates the last (here, nonexistent) switch
14SENDA      408000.       60.       0.0    { 1st of 3 sources.   Note balanced,
14SENDB      408000.       60.     -120.    { three-phase, sinusoidal excitation
14SENDC      408000.       60.      120.    { with no phasor solution.
BLANK card ending source data
 1
 194 2. 0.0 20.         RECA
BLANK card ending plot cards
BEGIN NEW DATA CASE
C        7th of 28 subcases merely modularizes the data for a 2-phase line that
C        will be used next.  It is a modification of 500-kV geometry of DC-59.
C        Preceding line sections were continously transposed.  The next will be
C        highly unbalanced due to vertical configuration,  note.  Phase 1 has a
C        real 3-conductor bundle whereas phase 2 consists of just one conductor
C        twice the height,  immediately above the 1st phase.
LINE CONSTANTS
$ERASE   { Flush the punched card buffer (in case 2nd or later subcase of usage)
ENGLISH     { Redundant request is unnecessary: English units are default choice
BRANCH  JDA   LMA   JDB   LMB                                       
  1 .375  .0776  4      .0  1.302      .17   51.04   { Modification of DC-59a
  1 .375  .0776  4      .0  1.302     1.00   50.00
  1 .375  .0776  4      .0  1.302     1.83   51.04
  2 .375  .0776  4      .0  1.302     1.83  101.40  { 2nd phase is twice as high
BLANK card concludes conductor cards
C     Following is old format with "1" in column 28.  Newer blank is equivalent:
  100.0     5000.0         1         1          70.                  1
BLANK card ends the one and only frequency card
$PUNCH
BLANK card ends  "LINE CONSTANTS"  data subcase
BEGIN NEW DATA CASE
C        8th of 28 subcases is like 1st except that a 2-phase, untransposed
C        line is involved.  This involves 1st use of transformation matrix,
C        note.  Preceding line sections all were transposed.  This one comes
C        from cards punched by 7th data subcase.  Use of comments cards within
C        CASCADE LINE  also are illustrated (note those series elements are not
C        actually being used;  they are comment cards only).  Only one phase is
C        excited,  for more imbalance.  There is no phasor solution, either.
PRINTED NUMBER WIDTH, 10, 2,  { Reduced precision
 .000050    .020
       1       1       1       0       1      -1
      30      10     100      50
  CASCADE LINE   { Request for February, 1998 replacement of old CASCADED PI
$VINTAGE, 1
-1JDA   LMA                9.92820E+00 4.56745E+02 1.62458E+05-1.00000E+02 1  2
-2JDB   LMB                3.89217E-01 3.61489E+02 1.85363E+05-1.00000E+02 1  2
$VINTAGE, 0
  0.91340878 -0.63245328
  0.00000000  0.00000000
  0.40704349  0.77459851
  0.00000000  0.00000000
  REPETITION   1   { Connect another 1 section of preceding 100 miles
C      1     1             1.E+1     { Small resistor precedes line section
C      2     2             1.E+1     { Small resistor precedes line section
  STOP CASCADE   { Terminate cascading that began with  "CASCADE LINE"  request
92LMA                                 5555. { 1st card of 1st of 3 ZnO }       1
C                    VREF                   VFLASH                    VZERO  COL
                  778000.                     -1.0                      0.0  4.0
C                    COEF                    EXPON                     VMIN
                     625.                      26.                      0.5
                    9999.
92LMB         LMA                     5555.                                    1
BLANK card follows the last branch card
BLANK line terminates the last (here, nonexistent) switch
14JDA        800000.       60.        0.
BLANK card ending source data
 1
 194 2. 0.0 20.         LMA         LMB
BLANK card ending plot cards
BEGIN NEW DATA CASE
C        9th of 28 subcases illustrates transposition without  CASCADE LINE.
C        This establishes the answer for the following case.  Note the first
C        section ends with  (LMA001, LMB001)  whereas the 2nd begins with
C        (LMB001, LMA001),  which shows  1 --> 2  and  2 --> 1  (swap).
PRINTED NUMBER WIDTH, 10, 2,  { Reduced precision
 .000050    .006
       1       1       1       0       1      -1
      33       1      40      10     100      50
$VINTAGE, 1
-1JDA   LMA001             9.92820E+00 4.56745E+02 1.62458E+05-1.00000E+02 1  2
-2JDB   LMB001             3.89217E-01 3.61489E+02 1.85363E+05-1.00000E+02 1  2
$VINTAGE, 0
  0.91340878 -0.63245328
  0.00000000  0.00000000
  0.40704349  0.77459851
  0.00000000  0.00000000
-1LMB001LMA   JDA   LMA001
-2LMA001LMB
92LMA                                 5555. { 1st card of 1st of 3 ZnO }       1
C                    VREF                   VFLASH                    VZERO  COL
                  778000.                     -1.0                      0.0  4.0
C                    COEF                    EXPON                     VMIN
                     625.                      26.                      0.5
                    9999.
92LMB         LMA                     5555.                                    1
BLANK card follows the last branch card
BLANK line terminates the last (here, nonexistent) switch
14JDA        800000.       60.        0.    { 1st of 3 sources.   Note balanced,
14JDB        800000.       60.     -120.    { three-phase, sinusoidal excitation
BLANK card ending source data
  LMB001LMA001LMB   LMA   JDA   JDB
BLANK card terminating names of node voltage outputs
 194 .5 0.5 5.5         LMA         LMB
BLANK card ending plot cards
BEGIN NEW DATA CASE
C        10th of 28 subcases repeats the preceding.  But here  CASCADE LINE  is
C        used to perform the transposition and connect the following (second)
C        line section.  Answers should be identical to preceding case.
PRINTED NUMBER WIDTH, 10, 2,  { Reduced precision
 .000050    .006
       1       1       1       0       1      -1
      33       1      40      10     100      50
  CASCADE LINE   { Request for February, 1998 replacement of old CASCADED PI
$VINTAGE, 1
-1JDA   LMA                9.92820E+00 4.56745E+02 1.62458E+05-1.00000E+02 1  2
-2JDB   LMB                3.89217E-01 3.61489E+02 1.85363E+05-1.00000E+02 1  2
$VINTAGE, 0
  0.91340878 -0.63245328
  0.00000000  0.00000000
  0.40704349  0.77459851
  0.00000000  0.00000000
  TRANSPOSITION    2   1   { Transpose 2 phases  A --> B,  B --> A
C      1     1             1.E+1     { Small resistor precedes line section
C      2     2             1.E+1     { Small resistor precedes line section
  REPETITION   1   { Connect another 1 section of preceding 100 miles
  STOP CASCADE   { Terminate cascading that began with  "CASCADE LINE"  request
92LMA                                 5555. { 1st card of 1st of 3 ZnO }       1
C                    VREF                   VFLASH                    VZERO  COL
                  778000.                     -1.0                      0.0  4.0
C                    COEF                    EXPON                     VMIN
                     625.                      26.                      0.5
                    9999.
92LMB         LMA                     5555.                                    1
BLANK card follows the last branch card
BLANK line terminates the last (here, nonexistent) switch
14JDA        800000.       60.        0.    { 1st of 3 sources.   Note balanced,
14JDB        800000.       60.     -120.    { three-phase, sinusoidal excitation
BLANK card ending source data
 1
 194 .5 0.5 5.5         LMA         LMB
BLANK card ending plot cards
BEGIN NEW DATA CASE
C        11th of 28 subcases illustrates transposition within  CASCADE LINE  use
C    50-mile, 2-phase line section is unbalanced.  After the 1st of these, we
C    transpose and connect another.  This is done 3 times (4 * 50 = 200 miles).
C diagnostic               9
PRINTED NUMBER WIDTH, 9, 2,  { Reduced precision
 .000050    .020
       1       1       1       0       1      -1
      33       1      40      10     100      50
  CASCADE LINE   { Request for February, 1998 replacement of old CASCADED PI
$VINTAGE, 1
-1JDA   LMA                9.92820E+00 4.56745E+02 1.62458E+05        -50. 1  2
-2JDB   LMB                3.89217E-01 3.61489E+02 1.85363E+05        -50. 1  2
$VINTAGE, 0
  0.91340878 -0.63245328
  0.00000000  0.00000000
  0.40704349  0.77459851
  0.00000000  0.00000000
  TRANSPOSITION    2   1   { Transpose 2 phases  A --> B,  B --> A
  REPETITION   1   { Connect another 1 section of 50 miles
  TRANSPOSITION    2   1   { Transpose 2 phases  A --> B,  B --> A
  REPETITION   1   { Connect another 1 section of 50 miles
  TRANSPOSITION    2   1   { Transpose 2 phases  A --> B,  B --> A
  REPETITION   1   { Connect another 1 section of 50 miles
C      1     1             1.E+1     { Small resistor precedes line section
C      2     2             1.E+1     { Small resistor precedes line section
  STOP CASCADE   { Terminate cascading that began with  "CASCADE LINE"  request
92LMA                                 5555. { 1st card of 1st of 3 ZnO }       1
C                    VREF                   VFLASH                    VZERO  COL
                  778000.                     -1.0                      0.0  4.0
C                    COEF                    EXPON                     VMIN
                     625.                      26.                      0.5
                    9999.
92LMB         LMA                     5555.                                    1
BLANK card follows the last branch card
BLANK line terminates the last (here, nonexistent) switch
14JDA        408000.       60.        0.    { 1st of 3 sources.   Note balanced,
C 14JDB        408000.       60.        0.    { three-phase, sinusoidal excitation
BLANK card ending source data
 1
 194 2. 0.0 20.         LMA       {  LMB
C 144 2. 0.0 20.         JDA   LMA   LMA001
C 144 2. 0.0 20.         JDB   LMB   LMB001
BLANK card ending plot cards
BEGIN NEW DATA CASE
C        12th of 28 subcases illustrates transposition within  CASCADE LINE.
C    Preceding data case consisted of manual connection of 3 transpositions and
C    line sections following the original line section.  That was manual.  Here
C    the multiplicity is automated by  INCLUDE TRANSPOSITION IN LOOP   anywhere
C    on the  REPETITION  card.  This is new and better as of April 24, 1998.
C diagnostic               9
PRINTED NUMBER WIDTH, 9, 2,  { Reduced precision
 .000050    .020
       1       1       1       0       1      -1
      33       1      40      10     100      50
  CASCADE LINE   { Request for February, 1998 replacement of old CASCADED PI
$VINTAGE, 1
-1JDA   LMA                9.92820E+00 4.56745E+02 1.62458E+05        -50. 1  2
-2JDB   LMB                3.89217E-01 3.61489E+02 1.85363E+05        -50. 1  2
$VINTAGE, 0
  0.91340878 -0.63245328
  0.00000000  0.00000000
  0.40704349  0.77459851
  0.00000000  0.00000000
  TRANSPOSITION    2   1   { Transpose 2 phases  A --> B,  B --> A
  REPETITION   3  INCLUDE TRANSPOSITION IN LOOP  { Connect another 3 sections of 50 miles
C      1     1             1.E+1     { Small resistor precedes line section
C      2     2             1.E+1     { Small resistor precedes line section
  STOP CASCADE   { Terminate cascading that began with  "CASCADE LINE"  request
92LMA                                 5555. { 1st card of 1st of 3 ZnO }       1
C                    VREF                   VFLASH                    VZERO  COL
                  778000.                     -1.0                      0.0  4.0
C                    COEF                    EXPON                     VMIN
                     625.                      26.                      0.5
                    9999.
92LMB         LMA                     5555.                                    1
BLANK card follows the last branch card
BLANK line terminates the last (here, nonexistent) switch
14JDA        408000.       60.        0.    { 1st of 3 sources.   Note balanced,
C 14JDB        408000.       60.        0.    { three-phase, sinusoidal excitation
BLANK card ending source data
 1
 194 2. 0.0 20.         LMA       {  LMB
C 144 2. 0.0 20.         JDA   LMA   LMA001
C 144 2. 0.0 20.         JDB   LMB   LMB001
BLANK card ending plot cards
BEGIN NEW DATA CASE
C        13th of 28 subcases illustrates transposition within  CASCADE LINE.
C    Preceding created 200 miles of line using 4 sections of length 50 miles.
C    The only change here is 20 sections of 10 miles each.  Each line section
C    is preceded by transposition,  so this is close to continuous.  The plot
C    here is smoother than preceding,  but not greatly different.
C diagnostic               9
PRINTED NUMBER WIDTH, 9, 2,  { Reduced precision
 .000050    .020
       1       1       1       0       1      -1
      33       1      40      10     100      50
  CASCADE LINE   { Request for February, 1998 replacement of old CASCADED PI
$VINTAGE, 1
-1JDA   LMA                9.92820E+00 4.56745E+02 1.62458E+05        -10. 1  2
-2JDB   LMB                3.89217E-01 3.61489E+02 1.85363E+05        -10. 1  2
$VINTAGE, 0
  0.91340878 -0.63245328
  0.00000000  0.00000000
  0.40704349  0.77459851
  0.00000000  0.00000000
  TRANSPOSITION    2   1   { Transpose 2 phases  A --> B,  B --> A
  REPETITION  19  INCLUDE TRANSPOSITION IN LOOP  { Connect another 3 sections of 50 miles
C      1     1             1.E+1     { Small resistor precedes line section
C      2     2             1.E+1     { Small resistor precedes line section
  STOP CASCADE   { Terminate cascading that began with  "CASCADE LINE"  request
92LMA                                 5555. { 1st card of 1st of 3 ZnO }       1
C                    VREF                   VFLASH                    VZERO  COL
                  778000.                     -1.0                      0.0  4.0
C                    COEF                    EXPON                     VMIN
                     625.                      26.                      0.5
                    9999.
92LMB         LMA                     5555.                                    1
BLANK card follows the last branch card
BLANK line terminates the last (here, nonexistent) switch
14JDA        408000.       60.        0.    { 1st of 3 sources.   Note balanced,
C 14JDB        408000.       60.        0.    { three-phase, sinusoidal excitation
BLANK card ending source data
  LMA001LMB001LMA006LMB006LMA011LMB011LMA016LMB016LMA   LMB
BLANK card ending node voltage outputs
 194 2. 0.0 20.         LMA       {  LMB
C 144 2. 0.0 20.         JDA   LMA   LMA001
C 144 2. 0.0 20.         JDB   LMB   LMB001
BLANK card ending plot cards
BEGIN NEW DATA CASE
C        14th of 28 subcases illustrates transposition without  CASCADE LINE.
C        The preceding pair of cases was for 2 phases;  the pair now beginning
C        is for 3 phases.  This 1st of the pair establishes the answer for the
C        following case.  Note the first section ends with  (RECA01, RECB01, &
C        RECC01)  whereas the 2nd begins with  (RECC01, RECA01, & RECB01),
C        which shows  1 --> 2,   2 --> 3,   and  3 --> 1  (a normal roll).
PRINTED NUMBER WIDTH, 9, 2,  { Reduced precision
 .000050    .010
       1       1       1       0       1      -1