BEGIN NEW DATA CASE
C     BENCHMARK DCNEW-16
C        1st of 12 subcases that confirm various aspects of switches that
C        touch compensation-based elements (bugs removed 17 December 1995).
C  E-mail from Laurent Dube on  Date: Sat, 15 Jul 1995 13:14:55 -0700 (PDT)
C  "Here is a trimmed-down version of Janko Kosmac's data case showing
C  wrong switch current values (which in his case were picked up by
C  MODELS to drive some other logic)."  Test here is even more simplified:
C                             
C         SRCE          N1    Type-91    N2    1.0     
C          o------_------o----/\/\/\----o----/\/\/\-----------
C                 ^       |              |                   |
C              closed     |              |<-- switch         |
C              switch     |              |    closed         |
C                         |----/\/\/\----o                   |
C                               1.E-6     N12                |
C                                                           ___
C                                                            _
   1.E-5   1.E-5                   
       1       1       1       1 
TACS HYBRID
99RESIS   =  1.E-6
77RESIS        1.E-6
33RESIS
BLANK card ending TACS
91N1    N2    TACS  RESIS                                                      1
  N1    N12                1.E-6                                               
  N2                          1.                                        
BLANK card ending branches
  N12   N2                                            MEASURING
  SRCE  N1                                            MEASURING                1
BLANK card ending switches
14SRCE          100.       60.       0.0        0.                 -1.
BLANK card ending sources
C Output for steady-state phasor switch currents.
C  Node-K   Node-M     I-real            I-imag            I-magn        Degrees
C  N12      N2     9.99999000E+01    0.00000000E+00    9.99999000E+01     0.0000
C  SRCE     N1     9.99999000E+01    0.00000000E+00    9.99999000E+01     0.0000
  N1    N12   N2
C  Step    Time      N1         N12        N2         SRCE       N1         TACS
C                                                     N1         N2        RESIS
C  Phasor I(0) = 9.999990E1  Switch  "N12   "  to  "N2    "  closed in steady-st
C  Phasor I(0) = 9.999990E1  Switch  "SRCE  "  to  "N1    "  closed in steady-st
C    0     0.0        100.    99.9999    99.9999    99.9999        0.0     1.E-6
C    1   .1E-4  99.9992894 99.9992394 99.9992394 99.9992394 49.9996197     1.E-6
BLANK card ending voltage printout
BLANK card ending plot
BEGIN NEW DATA CASE
C    2nd of 12 subcases began as the big, 7th subcase of DC-16.  Eventually,
C    nearly everything could be thrown away.  After closing,  the switch
C    voltage had better be zero (one of the improvements of 17 Dec 95).  This
C    was not a problem 2 or more days earlier,  however.  This problem resulted  
C    after making just the single  OVER16  correction.  Correction of it 
C    resulted in the two changes of  SUBTS3  (see  WSM95DEC  idents).
 .000100   .0004     60.  
       1      -1       1       1
  CR20A CR30A                         93.40                                    1 
92CR30A CR20A                          5555.                                   3
                  147500.                      -1.                             
                      1.0                      40.                      .80
                    9999.
  RAVBA CR30A               0.5  14.0                                          
  GRCBA CR20A               0.4   9.0                                          1
BLANK card ending program branch cards.
  CR20A          0.00015       10.   { Fault switch, phase "a" to ground }     3
BLANK card terminating program switch cards
14RAVBA    440000.   60.       -20.0                               -1.
14GRCBA    440000.   60.         0.0                               -1.
BLANK card terminating program source cards.
C       Total network loss  P-loss  by summing injections =   3.505855948763E+08
C   Node             Source  node  voltage             Injected  source  current
C   name       Rectangular           Polar          Rectangular            Polar
C  RAVBA    413464.7531458         440000.      26317.186674075  27911.988458816
C          -150488.8630633     -20.0000000      -9299.719634859      -19.4619099
BLANK card ending output variables requests (none here, since all column 80)
C  First  2     output variables are electric-network voltage differences (upper
C  Next   4     output variables are branch currents (flowing from the upper nod
C Step    Time      CR30A      CR20A      CR20A      CR30A      CR20A      GRCBA
C                   CR20A      TERRA      TERRA      CR20A      CR30A      CR20A
C   0     0.0  -264114.27 534224.351        0.0        0.0 -26317.187 -26317.187
C   1   .1E-3  -195321.89 509234.084        0.0  -75571.13 -102186.97 -26615.843
C ***          Close switch  "CR20A "  to  "      "  after  2.00000000E-04  sec.
C   2   .2E-3  -126265.42 483522.274        0.0 -.00199387 -26810.516 -26810.514
C   3   .3E-3  -97153.756        0.0 1625.62684 -.10944E-3 -27570.069 -25944.443
C   4   .4E-3  -66918.302        0.0  4833.9446 -.75381E-4  -28909.76 -24075.815
BLANK card ending plot cards
BEGIN NEW DATA CASE
C        3rd of 12 subcases that confirm various aspects of switches that
C        touch compensation-based elements.
C     IMTESTA3.DAT  ---  Name used by Prof. Juan Martinez of Barcelona, Spain
C     Based on I. Bonfanti's case : EMTP News, Vol. 2, no. 3, September 1989
C     Steady State Initialization
C     Wye-connected ungrounded armature - Resistor between neutral and ground
C     Switches permanently closed are connected to the armature terminals
C     Until correction on  26 Jan 96,  TQGEN  was completely wrong on step 2.
POWER FREQUENCY, 50
   1.E-4   .0002                  1.E-15
       1       1       1       1
C ----- Network description
  FEMR  CBR               .37024 1.196                                         1
  FEMS  CBS               .37024 1.196                                         1
  FEMT  CBT               .37024 1.196                                         1
C ----- Grounding resistor
  CSMT                    1000.
C ----- Motor parasitic capacitances
  M1.R                                .02                                      1
  M1.S                                .02                                      1
  M1.T                                .02                                      1
C ----- Mechanical network
  ROTORD                  1.E-08            
  ROTORQ                  1.E-08
  COPPIA                              9.16E6                                   2
  COPPI2COPPIA            1.0E-6
BLANK ENDING BRANCHES
  CBR   M1.R         -1.     15.00                                             1
  CBS   M1.S         -1.     15.00                                             1
  CBT   M1.T         -1.     15.00                                             1
BLANK ENDING SWITCHES
14FEMR        4899.        50.        0.                         -1.0    9999.
14FEMS        4899.        50.     -120.                         -1.0    9999.
14FEMT        4899.        50.      120.                         -1.0    9999.
14COPPI2-1      -1.      1.E-9        0.                         -1.0    9999.
C ----- UM specification
19 UM
01            0   - Compensation;  change 0 to 1 if prediction is wanted
BLANK
 3 1 1111COPPIA       1                            
           0.0       0.3964
           0.0       0.3964
            4.                    COPPI2
         .1674       .001   M1.R  CSMT        1
         .1674       .01    M1.S  CSMT        1
         .1674       .01    M1.T  CSMT        1
         .7819       .00453 ROTORD            1
         .7819       .00453 ROTORQ            1
BLANK card ending U.M. data
BLANK card ending sources
C     Total network loss  P-loss  by summing injections =   5.005262005074E-01
C     Total network loss  P-loss  by summing injections =   2.721172542328E+04
C     Total network loss  P-loss  by summing injections =   3.083034016021E+04
C     Total network loss  P-loss  by summing injections =   3.209218252624E+04
C Output for steady-state phasor switch currents.
C      Node-K    Node-M            I-real            I-imag            I-magn          Degrees        Power            Reactive
C      CBR       M1.R          2.18879785E+02   -8.91358682E+01    2.36333585E+02     -22.1580    5.25806422E+05    2.07845254E+05
C      CBS       M1.S         -1.86633819E+02   -1.44987520E+02    2.36333585E+02    -142.1580    5.25806422E+05    2.07845254E+05
C      CBT       M1.T         -3.22459663E+01    2.34123388E+02    2.36333585E+02      97.8420    5.25806422E+05    2.07845254E+05
C 1st gen:  COPPIA  301.59289474462  301.59289474462          4868.1875        4868.1875      734105.38014229  734105.38014229
C                               0.0              0.0    .17357870652E-4        0.0000002      -.0026175052283        1.0000000
C
C 2nd gen:    FEMR            4899.            4899.    218.87978507236  236.33358480802      536146.03353474  578899.11598725
C                              0.0              0.0     -89.13586817262      -22.1579539      218338.30908884        0.9261476
BLANK card ending node voltage output requests (none here)
C   Step      Time      COPPIA     CBR        CBS        CBT        FEMR       FEMS       FEMT       M1.R       M1.S       M1.T
C                       TERRA      M1.R       M1.S       M1.T       CBR        CBS        CBT        TERRA      TERRA      TERRA
C
C                       UM-1       UM-1       UM-1       UM-1       UM-1       UM-1       UM-1       UM-1
C                       TQGEN      OMEGM      THETAM     IPA        IPB        IPC        IE1        IE2
C ***      Phasor I(0) =  2.1887979E+02                     Switch  "CBR   "  to  "M1.R  "  closed in the steady-state.
C ***      Phasor I(0) = -1.8663382E+02                     Switch  "CBS   "  to  "M1.S  "  closed in the steady-state.
C ***      Phasor I(0) = -3.2245966E+01                     Switch  "CBT   "  to  "M1.T  "  closed in the steady-state.
C      0       0.0  301.592895 218.879785 -186.63382 -32.245966 218.879785 -186.63382 -32.245966 .309378E-3  .02587952  -.0261889
C                   -4976.4349 301.592895 1.57079633 -218.87948 186.659698 32.2197774  65.266856 -275.17162
C      1     .1E-3  301.593554 221.571447 -181.98783 -39.583621 221.571447 -181.98783 -39.583621 -.63563E-3 .026350533 -.02571491
C                   -4976.4333 301.592895 1.60095562 -221.57208 182.014176 39.5579061 64.9214972 -275.25321
C      2     .2E-3  301.594872 224.044463 -177.16225 -46.882216 224.044463 -177.16225 -46.882216 -.00157782 .026791347 -.02521353
C                   -4976.4315 301.592895 1.63111491 -224.04604 177.189039 46.8570021 64.5760272 -275.33436
BLANK card ending plot cards
BEGIN NEW DATA CASE
C        4th of 12 subcases that confirm various aspects of switches that
C        touch compensation-based elements.
C     Ivano Bonfanti  of CESI in Milano, Italy,  published this troublesome data
C     in LEC's  EMTP News,  Vol. 2, no. 3, September, 1989.  Although the answer
C     here is slightly different than the published "M39." EMTP  answer shown by
C     Bonfanti,  either is believed to be correct for engineering purposes.  The
C     machine obviously is in the steady state as it should we.  WSM, 28 Jan 96.
C     Note  EPSILN = 1.E-8  a few lines below is needed to restore default value 
C     of  STARTUP following distortion of the 3rd subcase.  Without restoration, 
C     the answer will be quite different because U.M. uses this to build network
C     during the 4 phasor solutions.
PRINTED NUMBER WIDTH, 10, 1,   { 10-digit col width including 1 blank separators
POWER FREQUENCY, 50
   2.E-4    .020     50.     0.0   1.E-8 
       1       1       1       1       1      -1
       5       5      20      20     100     100
TACS HYBRID  
11CARICO      -4797.                                               -1.        1.   
91COPPI1                                                           -1.        1.   
99COPPIA  =CARICO+COPPI1  
33COPPIA  
BLANK card ending TACS
  FEMR  CBR               .37024 1.196                                         1
  FEMS  CBS               .37024 1.196                                         1
  FEMT  CBT               .37024 1.196                                         1
C ----- Motor parasitic capacitances
  M1.R                                .02                                      1
  M1.S                                .02                                      1
  M1.T                                .02                                      1
  CSMT                     1000.  { Motor neutral grounding resistance
C ----- Mechanical network
  ROTORD                  1.E-08            
  ROTORQ                  1.E-08
  COPPIA                              9.16E6                                   2
  COPPI1COPPIA            1.0E-6
BLANK ENDING BRANCHES
  COPPI1COPPI2                                        MEASURING                1
  CBR   M1.R         -1.     15.00                                             1
  CBS   M1.S         -1.     15.00                                             1
  CBT   M1.T         -1.     15.00                                             1
BLANK ENDING SWITCHES
14FEMR   1   4898.98       50.        0.                          -1.0        1.
14FEMS   1   4898.98       50.     -120.                          -1.0        1.
14FEMT   1   4898.98       50.      120.                          -1.0        1.
14COPPI2-1       -1.     1.E-9        0.                          -1.0        1.
60COPPIA-1
19 UM
01            0   { Compensation;  use  "1"  rather than  "0"  for prediction
BLANK card ends Class-1 cards
 3 1 1111COPPIA       1                            
           0.0       0.3964
           0.0       0.3964
            4.                    COPPI2
         .1674       .001   M1.R  CSMT        1
         .1674       .01    M1.S  CSMT        1
         .1674       .01    M1.T  CSMT        1
        .78187       .00453 ROTORD            1
        .78187       .00453 ROTORQ            1
BLANK card ending  U.M. coils
BLANK ENDING SOURCES
C     Total network loss  P-loss  by summing injections =   5.005262016348E-01
C     Total network loss  P-loss  by summing injections =   3.007635104268E+04
C     Total network loss  P-loss  by summing injections =   3.007585104268E+04
C     Total network loss  P-loss  by summing injections =   3.008749127839E+04
C      Node-K    Node-M            I-real            I-imag            I-magn          Degrees        Power            Reactive
C      COPPI1    COPPI2        4.82497291E+03    0.00000000E+00    4.82497291E+03       0.0000    7.27577133E+05    0.00000000E+00
C      CBR       M1.R          2.12219079E+02   -9.54916543E+01    2.32713544E+02     -24.2262    5.09803228E+05    2.01520807E+05
C      CBS       M1.S         -1.88807738E+02   -1.36041286E+02    2.32713544E+02    -144.2262    5.09803228E+05    2.01520807E+05
C      CBT       M1.T         -2.34113411E+01    2.31532941E+02    2.32713544E+02      95.7738    5.09803228E+05    2.01520807E+05
C 1 of 4 gen: COPPIA  301.59289474462  301.59289474462      4824.9729075506  4824.9729075506      727588.77312628  727588.77312628
C                                 0.0              0.0      .17357870652E-4        0.0000002      -.0026175052283        1.0000000
C
C 2 of 4 gen: FEMR            4898.98          4898.98      212.21907905668  232.71354399216      519828.51195855  570029.49887335
C                                 0.0              0.0      -95.49165430404      -24.2261891      233905.85230121        0.9119327
C
C             FEMS           -2449.49          4898.98       -188.807738005  232.71354399216      519828.51195855  570029.49887335
C                     -4242.641132632     -120.0000000      -136.0412864788     -144.2261891      233905.85230121        0.9119327
C
C             FEMT           -2449.49          4898.98      -23.41134105164  232.71354399216      519828.51195855  570029.49887335
C                     4242.6411326319      120.0000000      231.53294078285       95.7738109      233905.85230121        0.9119327
C
C   Step      Time     COPPIA    COPPI1    CBR       CBS       CBT       FEMR      FEMS      FEMT      M1.R      M1.S      M1.T
C                      TERRA     COPPI2    M1.R      M1.S      M1.T      CBR       CBS       CBT       TERRA     TERRA     TERRA
C
C                      TACS      UM-1      UM-1      UM-1      UM-1      UM-1      UM-1      UM-1      UM-1
C                      COPPIA    TQGEN     OMEGM     THETAM    IPA       IPB       IPC       IE1       IE2
C ***      Phasor I(0) =  4.8249729E+03                     Switch  "COPPI1"  to  "COPPI2"  closed in the steady-state.
C ***      Phasor I(0) =  2.1221908E+02                     Switch  "CBR   "  to  "M1.R  "  closed in the steady-state.
C ***      Phasor I(0) = -1.8880774E+02                     Switch  "CBS   "  to  "M1.S  "  closed in the steady-state.
C ***      Phasor I(0) = -2.3411341E+01                     Switch  "CBT   "  to  "M1.T  "  closed in the steady-state.
C      0       0.0  301.59289 4824.9729 212.21908 -188.8077 -23.41134 212.21908 -188.8077 -23.41134 .00137262   .024922 -.0262946
C                         0.0 -4824.973 301.59289 1.5707963 -212.2177 188.83266 23.385046 74.005629 -268.4606
C      1     .2E-3  301.59289 4824.9729 217.79488 -179.8952 -37.89965 217.79488 -179.8952 -37.89965 -.4897E-3 .02588688 -.0253972
C                   27.972911 -4824.959 301.59289 1.6311149 -217.7954 179.92112 37.874249 73.334597 -268.6438
C      2     .4E-3   301.5932 4824.9729 222.51143  -170.273 -52.23846 222.51143  -170.273 -52.23846  -.002339 .02673945 -.0244004
C                   27.972911 -4824.941 301.59289 1.6914335 -222.5138 170.29971  52.21406 72.662955 -268.8252
BLANK ENDING OUTPUT REQUEST
C    100       .02  301.64888 4824.9729 211.99353 -188.6458 -23.34774 211.99353 -188.6458 -23.34774 .00136234 .02495568  -.026318
C                   27.972911 -4819.913 301.64979 7.6030487 -211.9922 188.67075 23.321418 5.0277011 -278.1347
C Variable maxima :  301.64888 4824.9729 232.67504 232.63158 232.51922 232.67504 232.63158 232.51922 .02962796 .02960618 .02960763
C                   27.972911 -4819.913 301.65916 7.6030487  232.6071 232.54547 232.60707 74.005629 -268.4606
C Times of maxima :        .02     .0118     .0014      .008     .0146     .0014      .008     .0146     .0152      .002     .0084
C                       .0118       .02     .0122       .02     .0114      .018     .0046       0.0       0.0
C Variable minima :  301.59289 4824.9729 -232.5957 -232.5347 -232.5969 -232.5957 -232.5347 -232.5969  -.029647 -.0296246 -.0296779
C                         0.0 -4824.973 301.59289 1.5707963 -232.6864 -232.6424 -232.5295 5.0277011 -278.1347
C Times of minima :      .2E-3       0.0     .0114      .018     .0046     .0114      .018     .0046     .0052     .0118     .0184
C                         0.0       0.0       0.0       0.0     .0014      .008     .0146       .02       .02
  PRINTER PLOT
 194 5. 0.0 20.         UM-1  TQGEN COPPI2COPPI1    { Limits:  (-4.825,  0.000)
 194 5. 0.0 20.         TACS  COPPIAUM-1  THETAM    { Limits:  (0.000,  2.797)
 194 4. 0.0 20.         BRANCH                      { Limits:  (-2.327,  3.017)
                        M1.R  CBR   M1.S  CBS   M1.T  CBT   UM-1  OMEGM
 194 4. 0.0 20.         BRANCH                      { Limits:  (-2.327,  2.326)
                        UM-1  IPA   UM-1  IPB   UM-1  IPC
BLANK card ending plot cards
BEGIN NEW DATA CASE
C        5th of 12 subcases that confirm various aspects of switches that
C        touch compensation-based elements.  This is like the 1st except
C        that here we have 3 phases.  As explained in the July, 1996,
C        newsletter,  Marjan Popov in Macedonia first complained of trouble.
C        Prior to  1 June 1996,  step 2 would never be reached because the
C        error occurred following opening on step 1.  Here, we go 3 steps:
 .000050 .000150     50.     50.   1.E-9
       1       1
TACS HYBRID
C      Note.  Mr. Popov used MODELS,  and he had complicated dynamics.  But
C             none of that complexity was required to demonstrate the trouble
C             (KILL = 209).  So, instead use simpler TACS model of 1st subcase:
99RESIS   =  1.E-6
77RESIS        1.E-6
33RESIS
BLANK card ending TACS
$DEPOSIT, MATFUL=1 { Internal conversion of Type-51, 52, ... to unsymmetric data
C  Add preceding definition of MATFUL  on  6 August 2008  as the update to allow
C  unsymmetric branch [R], [L] is being packaged. Of course, the following three
C  coupled branches are symmetric,  so by pretending that they are not we merely
C  waste both storage (the size of List 3 will increase by 3 cells) and computer
C  time (the unsymmetric phasor solution requires more work).   As for location,
C  there is no magic.  If  MATFUL has value unity at the start of a Type-51, 52,
C  ... branch group,  ATP will convert the R-L data to unsymmetric (full matrix)
C  storage.  To turn off this "service,"  use  $DEPOSIT, MATFUL=0  which will be
C  found near the start of the following subcase (it could be moved to this one,
C  to any point below the Type-53 branch card, just as well).  WSM.
51SRCR  BUSR                           21.07       { ZERO SEQUENCE
52SRCS  BUSS                            2.39       { POSITIVE SEQUENCE
53SRCT  BUST 
$VINTAGE, 1
 1LINBR LINER               3.98507949E+00  1.16971333E+01  5.00880327E+01
 2LINBS LINES               1.64595110E+00  3.84463816E+00 -7.10131829E+00
                            3.81191239E+00  1.21114617E+01  4.86330090E+01
 3LINBT LINET               1.57601253E+00  4.21324332E+00 -8.66201631E+00
                            1.50186508E+00  4.04356685E+00 -6.51737363E+00
                            3.69294935E+00  1.24065061E+01  4.91034827E+01
$VINTAGE, 0
91ARCR  LINBR TACS  RESIS                                                     2
91ARCS  LINBS TACS  RESIS                                                     2
91ARCT  LINBT TACS  RESIS                                                     2
C NAME  NAME  REFERENCE   R(OHM)X(OHM)C(miF)
  BUSR                                0.314 { Bus bar capacitances
  BUSS                                0.314
  BUST                                0.314 
C    Provide linear elements connected to  ARCR, ARCS, ARCT (leakage to ground):
  ARCR                      1.E8
  ARCS                      1.E8
  ARCT                      1.E8
BLANK Card ending branch cards
  BUSR  ARCR        -0.1     2.60                                              1
  BUSS  ARCS        -0.1     2.60                                              1
  BUST  ARCT        -0.1     2.60                                              1
  ARCR  LINBR       -0.1    0.000      50.E3                                         
  ARCS  LINBS       -0.1    0.001      50.E3                                         
  ARCT  LINBT       -0.1    0.001      50.E3                                        
BLANK  Card ending switch cards
14SRCR        89814.       50.        0.        0.                 -1.
14SRCS        89814.       50.      120.        0.                 -1.
14SRCT        89814.       50.     -120.        0.                 -1.
BLANK Card ending source cards
  LINER LINES LINET BUSR  BUSS  BUST
BLANK  Card ending output cards 
C   Step    Time      LINER      LINES      LINET      BUSR       BUSS       BUST       BUSR       BUSS       BUST       TACS
C                                                                                         ARCR       ARCS       ARCT       RESIS
C ***    Phasor I(0) = -1.2037996E-01    Switch  "BUSR  "  to  "ARCR  "  closed in the steady-state.
C ***    Phasor I(0) = -4.2912571E+00    Switch  "BUSS  "  to  "ARCS  "  closed in the steady-state.
C ***    Phasor I(0) =  4.3267803E+00    Switch  "BUST  "  to  "ARCT  "  closed in the steady-state.
C ***    Phasor I(0) = -1.2127823E-01    Switch  "ARCR  "  to  "LINBR "  closed in the steady-state.
C ***    Phasor I(0) = -4.2908080E+00    Switch  "ARCS  "  to  "LINBS "  closed in the steady-state.
C ***    Phasor I(0) =  4.3272295E+00    Switch  "ARCT  "  to  "LINBT "  closed in the steady-state.
C      0     0.0  89846.7243 -44918.879 -44929.061 89826.4331 -44913.159 -44913.549 -.12037996 -4.2912571 4.32678032      1.E-6
C ***      Open  switch  "ARCR  "  to  "LINBR "  after  5.00000000E-05  sec.
C      1   .5E-4  89835.7272 -46135.534 -43701.414 89815.3391 -46129.508 -43686.133 -.20216547 -4.2510535 4.36857684      1.E-6
C      2   .1E-3  89802.5653 -47340.817 -42462.973  89782.085 -47334.497 -42447.917 -.28390448 -4.2098234 4.40932077      1.E-6
C      3  .15E-3  89747.2461 -48534.443 -41214.032 89726.6777 -48527.808 -41199.225  -.3655754 -4.1675019 4.44892539      1.E-6
BLANK CARD ending plot
BEGIN NEW DATA CASE
C        6th of 12 subcases illustrates trouble with compensation-based elements
C        even though no switch is involved.  The data came from Gabor Furst on
C        14 Sept 2000 as mentioned in the January, 2001, newsletter.  Execution
C        should be stopped in overlay 16 because the Type-91 element R(t) is not
C        isolated in a separate subnetwork from the U.M. Case-summary statistics
C        show  List 24 = 4  as the number of phases of compensation.  This is
C        entirely wrong:  Size 21-30:     0     0     9     4   337  ...
C STEP ZERO COUPLE    { If activated, the correct KILL = 9 of overlay 15 results
C          20 May 2001, the answer changes following correction to SOLVUM to
C          solve a problem from Dr. Michael Steurer of CAPS at Florida State.
C          No, answer is not right.  It remains wrong,  but is a different wrong
C          because compensation logic has been modified.
C        23 May 2001,  introduce request for special verification of possible
C        overlap between U.M. compensation and that of List-9 elements.  This is
C        in OVER16 (to find the code, search for KOMPUM).  Add new request:
VERIFY U.M. COMPENSATION { If removed, KILL = 9 error termination will disappear
$DEPOSIT, MATFUL=0   { Cancel conversion of Type-51, 52, ... to unsymmetric data
UM TO TACS
  5.0E-4   5.E-4    50.0  { Only 1 time step is needed to demonstrate the error
       1       1 
TACS { The Rule Book recommends TACS HYBRID or TACS STAND ALONE, but this works
92TQGEN
98TPER    =  1/FREQHZ
 1TAVG1   +TQGEN 1
       1.0
       1.0     0.020
 1TAVG    +TAVG1                                    1.0
       1.0
       1.0     0.020
98ROTRES  = 1000.0*(1.0 - TIMEX/8.0)
33IM    TAVG  TQGEN ROTRES
BLANK card ending TACS data
  SRA   MOTA                      1.00   {  source impedance  ohm         }    1
  SRB   MOTB                      1.00                                         1
  SRC   MOTC                      1.00                                         1
C    Tops of 3 rotor coils are grounded through 1/2-ohm resistors:
  XOTA                      0.50  { Fixed resistance for rotor phase a }       1
  XOTB                      0.50  { Fixed resistance for rotor phase b }       1
  XOTC                      0.50  { Fixed resistance for rotor phase c }       1
C    Bottoms of 3 rotor coils are connected to neutral NEUT, which then is
C    grounded by the following TACS-defined, time-varying resistor:
91NEUT        TACS  ROTRES   { Variable resistance in rotor circuit }          1
C    But node NEUT is connected to no linear branch.  To avoid a warning
C    message,  parallel the preceding R(t) by fixed high reistance:
  NEUT                      1.E6
C  the anlogue network records follow
C  the separator from the 14 source
  INERS INER               1.E-6
  INER                                 3.3E7          {inertia  uF}
C   the damping term in ohms
        INER                2.26                        {damping  1/mho}
BLANK ending BRANCHes
BLANK ending SWITCHes
14SRA        3400.00      50.0       0.0                            -1
14SRB        3400.00      50.0     240.0                            -1
14SRC        3400.00      50.0     120.0                            -1
C  the source for the analogue network
14INERS -1  0.000001  .0000001                                      -1
C   the source of any additional load applied
14INERS -1 -0.000001 0.0000001                                    5.00
19         { Begin U.M. data for single 3-phase induction motor with wound rotor
 0            0     { Note no auto-initialization (no multiple phasor solutions)
BLANK
 4    111INER         2                             0.15700
                  0.465131
                  0.465131
C   armature coils
                            MOTA              1
    0.3393571     0.0109180 MOTB              1
    0.3393571     0.0109180 MOTC              1
C    rotor coils
    0.5785651     0.0109180 XOTB  NEUT        1
    0.5785651     0.0109180 XOTC  NEUT        1
                            XOTA  NEUT        1
BLANK card ending U.M. data
BLANK card ending sources
BLANK card ending output variables requests (none here, since all column 80)
BLANK card ending plot cards
BEGIN NEW DATA CASE
C        7th of 12 subcases illustrates new  TACS R-thev  option on rotor coil
C        cards to define connected resistance using a TACS variable.  It does