BEGIN NEW DATA CASE
C     BENCHMARK DCNEW-1
C     Test of automatic U.M. initialization using Type-4  (the induction)  mode.
C     Continuation of steady-state only (no real transient).   No external rotor
C     circuit.   Machine rating is as follows:
C                    2.541 MVA,  4.2 KV,  4 POLE ( 85.67% efficiency at 0.846 PF
C                    and 14.0E+3 NM.;  KIPP TORQUE = 79.157E+3 NM, SLP = 24.3% )
POWER FREQUENCY, 60,   { Corrects possible 50-Hz declaration of European STARTUP
ABSOLUTE U.M. DIMENSIONS, 20, 2, 50, 60,
PRINTED NUMBER WIDTH, 13, 2,  { Request maximum precision (for 8 output columns)
 .000200    .100
       1       1       1       1       1      -1
       5       5      20      20     100     100
C  --------- ROTOR EXTERNAL RESISTANCES
  BUSA2 BUSAS2            1.0E-4 10.0                                          1
  BUSB2 BUSBS2BUSA2 BUSAS2
  BUSC2 BUSCS2BUSA2 BUSAS2
C  --------- CONNECTIVITY OF EMTP FOR ELECTRIC NETWORK
  BUSAS2                  1.0E+6
  BUSBS2      BUSAS2
  BUSCS2      BUSAS2
C  --------- MECHANICAL NETWORK COMPONENTS
  BUSMG BUSMGR            .4548                                                1
  BUSMGR      BUSMG BUSMGR
  BUSMG                               9.8E+7                                   1
C  -------- FOR MEASUREMENT OF ELECTROMECHANICAL TORQUE
  BUSMS BUSMG             1.0E-6                                               1
BLANK card ending branch cards
BLANK card ending nonexistent switch cards
C  --------- SOURCES FOR INFINITE BUS
14BUSAS2  3000.0     60.0     0.0                           -1.0
14BUSBS2  3000.0     60.0     -120.0                        -1.0
14BUSCS2  3000.0     60.0     +120.0                        -1.0
C  --------- 3-PHASE SOURCES AT ROTOR SIDE (ACTUAL FREQ SET BY SS):
C  --------- MECHANICAL INPUT TORQUE (ACTUAL VALUE SET BY SS):
14BUSMS -1 0.000001  0.00001                                -1.0
19 UM                                                   { Beginning of U.M. data
 1
BLANK CARD ENDING CLASS 1 UM DATA CARDS
C  UM-1 MACHINE TABLE :
 4    111BUSMG        2                            0.1885
              0.02358
              0.02358
2.0           0.0                 BUSMS
C  UM-1 COIL TABLE
                            BUSA2             1
0.412         0.0012        BUSB2             1
0.412         0.0012        BUSC2             1
0.110         0.0012                          1
0.110         0.0012                          1
                                              1
BLANK card terminating all U.M. data
C --------------+------------------------------
C From bus name |  Names of all adjacent busses.
C --------------+------------------------------
C        BUSA2  |BUSAS2*UM1TLA*
C        BUSAS2 |TERRA *BUSA2 *
C        BUSB2  |BUSBS2*UM1TLB*
C        BUSBS2 |TERRA *BUSB2 *
C        BUSC2  |BUSCS2*UM1TLC*
C        BUSCS2 |TERRA *BUSC2 *
C        BUSMG  |TERRA *BUSMGR*BUSMS *UM1MCC*
C        BUSMGR |TERRA *BUSMG *
C        BUSMS  |BUSMG *
C        UM1TLA |BUSA2 *
C        UM1TLB |BUSB2 *
C        UM1TLC |BUSC2 *
C        UM1MCC |BUSMG *
C        TERRA  |BUSAS2*BUSBS2*BUSCS2*BUSMG *BUSMGR*
C --------------+------------------------------
BLANK card ending all electric-network sources
C       Total network loss  P-loss  by summing injections =   1.399999999990E+01
C       Total network loss  P-loss  by summing injections =   1.879270126241E+04
C       Total network loss  P-loss  by summing injections =   1.879220126241E+04
C       Total network loss  P-loss  by summing injections =   1.880006219404E+04
C Last inject:  BUSCS2     -1500.      3000.     182.2227379651  376.33814334153
C Last inject:    2598.0762113533   120.0000    329.27992939481       61.0399614
  BUSAS2BUSA2 BUSMG                             { Selective node voltage outputs
C  Step    Time        BUSAS2       BUSA2        BUSMG        BUSA2        BUSMG
C                                                            BUSAS2       BUSMGR
C
C                       UM-1         UM-1         UM-1         UM-1         UM-1
C                       OMEGM        THETAM       IPA          IPB           IPC
C    0     0.0         3000.  1784.374675   184.725648  -194.050415  203.0844855
C                 184.725648  .7853981634  -194.050415  376.2746528  -182.224238
C    1   .2E-3   2991.476701  1834.302202  184.7256479  -217.778001  203.0844854
C                 184.725648   .822343293  -217.778001  374.6919354  -156.913934
BLANK card terminating output variable requests
C  500     0.1         3000.  1783.984613  184.7241591  -193.987564  203.0828486
C                 184.725648  19.25796297  -193.987564  376.1921117  -182.204548
C Variable maxima :    3000.   1928.26504   184.725648  376.2415171  203.0844855
C                   184.725648 19.25796297  376.2415171 376.2781467  376.2139786
C Times of maxima :        0.0        .001          0.0       .0944          0.0
C                          0.0         0.1        .0944       .0166        .0722
C Variable minima :   -3000.  -1928.26734  184.7241591  -376.246896  203.0828486
C                 184.725648  .7853981634  -376.246896  -376.228394  -376.231626
C Times of minima :     .075         .026          0.1        .0194          0.1
C                        0.0          0.0        .0194        .0916        .0972
  PRINTER PLOT
 194 10 0.0 100         UM-1  OMEGM UM-1  THETAM  { Plot limits: (0.000,  1.847)
 194 20 0.0 100         BUSMG BUSMGRUM-1  TQGEN  { Plot limits: (-4.168,  0.203)
BLANK card terminating plot cards
BEGIN NEW DATA CASE
C     2nd of 7 subcases is related to first.   Solution is nearly the same.  Two
C     changes have been  made.   First,  prediction rather than compensation  is
C     used  ("1" in column 15 on 2nd card).  Second, two copies of the induction
C     machine are in parallel (armature terminals).   The  two  machines do have
C     separate (but identical) mechanical networks, however.  The impedance that
C     connects armature  coils  to  the infinite bus has been halved in order to
C     keep the solution the same until the fault  (armature phase "a" to ground)
C     at 20 msec.   This simulation has been stopped at 50 msec, but others have
C     run  to 1/2 second with interesting results.   For example,  fault current
C     still shows a sizable dc offset that is decaying very slowly.   The  speed
C     demonstrates  a  small but troublesome oscillation on each time step.   If
C     the fault switch is erased,  then  the  simulation agrees closely with the
C     first subcase.
POWER FREQUENCY, 60,   { Corrects possible 50-Hz declaration of European STARTUP
ABSOLUTE U.M. DIMENSIONS, 20, 2, 50, 60,
PRINTED NUMBER WIDTH, 13, 2,  { Request maximum precision (for 8 output columns)
 .000200    .050
       1       1       1       0       1      -1
       5       5      20      20     100       1     105       5     120      20
C        Impedance (series R-L) connects armature coils with sinusoidal sources:
  BUSA2 BUSAS2            .50E-4  5.0                                          1
  BUSB2 BUSBS2BUSA2 BUSAS2
  BUSC2 BUSCS2BUSA2 BUSAS2
C  --------- CONNECTIVITY OF EMTP FOR ELECTRIC NETWORK
  BUSAS2                  .50E+6
  BUSBS2      BUSAS2
  BUSCS2      BUSAS2
C   ========  Begin mechanical network for 1st of 2 parallel induction machines:
  BUSMG BUSMGR            .4548                                                1
  BUSMGR      BUSMG BUSMGR
  BUSMG                               9.8E+7                                   1
  BUSMG                               9.8E+7                                   1
  BUSMS BUSMG             1.0E-6   { To measure electromagnetic torque }       1
C   ========  Begin mechanical network for 2nd of 2 parallel induction machines:
  GUSMG GUSMGR            .4548                                                1
  GUSMGR      GUSMG GUSMGR
  GUSMG                               9.8E+7                                   1
  GUSMS GUSMG             1.0E-6   { To measure electromagnetic torque }       1
BLANK card ending branch cards
  BUSA2            .0199       1.0  { Retard by dt/2 so close at 20 msec }     1
BLANK card terminating all switch cards
C  --------- SOURCES FOR INFINITE BUS
14BUSAS2  3000.0     60.0     0.0                           -1.0
14BUSBS2  3000.0     60.0     -120.0                        -1.0
14BUSCS2  3000.0     60.0     +120.0                        -1.0
C  --------- 3-PHASE SOURCES AT ROTOR SIDE (ACTUAL FREQ SET BY SS):
C  --------- MECHANICAL INPUT TORQUE (ACTUAL VALUE SET BY SS):
14BUSMS -1 0.000001  0.00001                                -1.0
14GUSMS -1 0.000001  0.00001                                -1.0
19 UM                                                   { Beginning of U.M. data
 1            1
BLANK CARD ENDING CLASS 1 UM DATA CARDS
C  UM-1 MACHINE TABLE :
 4    111BUSMG        2                            0.1885
              0.02358
              0.02358
2.0           0.0                 BUSMS
C  UM-1 COIL TABLE
                            BUSA2             1
0.412         0.0012        BUSB2             1
0.412         0.0012        BUSC2             1
0.110         0.0012                          1
0.110         0.0012                          1
                                              1
 4    111GUSMG        2                            0.1885
              0.02358
              0.02358
2.0           0.0                 GUSMS
                            BUSA2             1
0.412         0.0012        BUSB2             1
0.412         0.0012        BUSC2             1
0.110         0.0012                          1
0.110         0.0012                          1
                                              1
BLANK card terminating all U.M. data
BLANK card ending all electric-network sources
C       Total network loss  P-loss  by summing injections =   1.434204163862E+06
C       Total network loss  P-loss  by summing injections =   1.746481733467E+06
C       Total network loss  P-loss  by summing injections =   2.447413291234E+07
C       Total network loss  P-loss  by summing injections =   2.447413191234E+07
C       Total network loss  P-loss  by summing injections =   2.447414763420E+07
C Step    Time        BUSAS2       BUSA2        BUSMG        BUSA2        BUSA2
C                                                            TERRA        BUSAS2
C
C                     BUSMS        GUSMG        GUSMG        GUSMS        UM-1
C                     BUSMG        GUSMGR       TERRA        GUSMG        TQGEN
C
C                     UM-1         UM-1         UM-1         UM-1         UM-1
C                     IPB          IPC          IE1          IE2          IE3
C
C                     UM-2         UM-2         UM-2         UM-2         UM-2
C                     IPA          IPB          IPC          IE1          IE2
C    0     0.0         3000.  1784.374675   184.725648          0.0   -388.10083
C                -3965.07077  203.0844855          0.0  -3965.07077  -4168.15526
C                376.2746528  -182.224238   62.0743506   -362.34101  -87.7863885
C                -194.050415  376.2746528  -182.224238   62.0743506   -362.34101
C    1   .2E-3   2991.476701  1834.404076   184.725648          0.0  -435.553965
C                -3965.07077  203.0844854  -.092693806  -3965.07077  -4168.06256
C                374.6920465  -156.915064  161.7505543  -308.470816  146.7202621
C                -217.776982  374.6920465  -156.915064  161.7505543  -308.470816
  BUSAS2BUSA2 BUSMG                             { Selective node voltage outputs
BLANK card terminating output variable requests
C  250     .05         3000.          0.0  183.9807585  -1085.80689  804.5211912
C                -3965.07077  201.4660671  -114.046535  -3965.07077  -3834.24844
C                480.8586416  -288.589529  192.2606971  -403.962505  211.7018082
C                -150.261378  499.5514745  -288.045306  219.3886975  -425.409154
C Variable max :       3000.  1928.308447   184.725648  3888.235034  2395.399979
C                -3965.07077  203.0844855  3222.786447  -3965.07077  13430.35234
C                480.8586416   536.090637  1076.526092  1065.863054  274.4477824
C                 1549.98802  499.5514745  544.7564009  1078.265346  1064.943318
C Times of maxima :      0.0         .001          0.0        .0374        .0292
C                      .0412          0.0         .032        .0412        .0272
C                        .05        .0388        .0306        .0276        .0244
C                      .0374          .05        .0388        .0306        .0276
C Variable minima :   -3000.  -1928.21025  183.9697478  -6518.05923  -785.871968
C                -3965.07077  201.4385025  -17586.9944  -3965.07077  -7353.74079
C                -465.029322  -560.658809  -574.664871   -544.13558  -1315.26592
C                -2074.00287  -474.993058  -576.837968  -574.678392   -556.13293
C Times of minima :     .025        .0094        .0478        .0288        .0208
C                        0.0        .0478        .0272          0.0         .032
C                       .042        .0472         .026         .049         .029
C                      .0286         .042        .0472         .026         .049
  PRINTER PLOT
C     193.05 0.0  .5 165.185.UM-1  OMEGM UM-2  OMEGM  { Plot limits: ()
 194 5. 0.0  50         UM-1  TQGEN UM-2  TQGEN  { Plot limits: (-0.739,  1.343)
C     193.05 0.0  .5         UM-1  TQGEN UM-2  TQGEN  { Plot limits: ()
 194 10 0.0  50         BUSA2                    { Plot limits: (-6.518,  3.888)
C     193.05 0.0  .5         BUSA2                    { Plot limits: ()
BLANK card terminating plot cards
BEGIN NEW DATA CASE
C     3rd of 7 subcases is unrelated to preceding 2.  Oh, the U.M. is involved
C     as an induction motor, but this subcase illustrates troubled starting
C     from zero.  The data is from Gabor Furst of suburban Vancouver, B.C.,
C     Canada.  In E-mail dated April 8th, he wrote about attached data files
C     TCOMP.DAT  and  TPRED.DAT  (compensation and prediction, respectively).
C     Using prediction and no automatic initialization, one observes
C     divergence of the iteration for mechanical speed OMEGM on step 3.
C     This is for TPRED.  TCOMP has no such trouble (see following subcase).
C     WINDSYN  is Gabor Furst's MS Windows program that generates data for
C     the U.M.  From comments that follow,  WINDSYN seems to have been used
C     to produce the data.  There were several "/" cards for sorting, but WSM
C     removed them to simplify the data.  He also removed  AVERAGE OUTPUT,
C     since it had nothing to do with the troubled iteration for speed.  The
C     maximum number of iterations for U.M. speed is  MAXZNO,  which originally
C     was introduced as the iteration limit for ZnO surge arresters.  Since the
C     default value is 50, this has been reduced to 20.  Even 10 would be fine.
C     Additional iterations do not help.  As the  .DBG  file will show,  speed
C     is neither converging nor diverging;  it just bounces around over a very
C     wide range that includes both positive and negative values.  The three
C     switches in series with the armature windings were removed without effect.
C     Subcases 3, 4, and 5 were added to DCN1 on  18 April 2003.  WSM.
C      WindSyn test case
C  generated on  4/7/03   for RoundDamp
PRINTED NUMBER WIDTH, 11, 1,  { Return to default precision for dT loop columns
ZINC OXIDE            20   { MAXZNO is used as iteration limit for omega of U.M.
POWER FREQUENCY, 50.0,
  .50E-4    .020
       1       1       1       1
C   Note about preceding dT and T-max.  Obviously, T-max is immaterial since
C   the simulation will end on step 3.  As for dT,  50 usec  is the value Gabor
C   Furst used.  It can be changed over a wide range without affecting the halt
C   on step 3.  As dT becomes smaller,  the speed error becomes bigger.  Smaller
C   dT (50 usec already is small) provides no help.  Shown below,  OMEGM  is on
C   the order of  1.E+13  as the iteration diverges.  Using 1/2 msec,  this will
C   drop to  1.E9.  Yes, better, but still completely wrong.  The correct value
C   is less than unity (the machine started with speed equal to zero).
C        ELECTRIC NETWORK DATA
C BUS**>BUS**>BUS**>BUS**><****R<****L<****
C   short circuit level  =     83  MVA
C  the machine rating entered was      834.47   kVA
  SRCA  MOTA              .767   3.83
  SRCB  MOTB              .767   3.83
  SRCC  MOTC              .767   3.83
  MOTA                     1.E06
  MOTB                     1.E06
  MOTC                     1.E06
C
  INERS INER               1.E-6
  IX                                  7.E+07        {inetia in uF}
C   the damping term in ohms
        INER              .11                        {damping  1/mho}
BLANK card ending BRANCHes
  INERS IX            -1     1000.
BLANK card ending SWITCHes
C        SOURCE DATA
C .......1.........2.........3.........4.........5.........6.........7.........8
C  Source voltages
14SRCA      8164.965     50.00       0.0       { Vt }
14SRCB      8164.965     50.00     240.0
14SRCC      8164.965     50.00     120.0
C   next  the source records required
C  source for the mechanical analogue
14INERS -1  0.000001  .0000001
C   Note about 4 preceding Type-14 sources.  Gabor Furst had  T-start = -1.0
C   in columns 61-70.  This added a phasor solution,  but it did not help.  The
C   error termination on Step 3 is unaffect, so WSM removed the phasor solution.
19   { Begin U.M. data, which is an electrical source of type 19 (columns 1-2)
C Col.2 = 0 Decoupled,  = 1 Autoinitialize -----  Col. 15 =0 Compensation,  =1 Prediction
 0            1 { Col. 2 ==> no automatic initialization; col. 15 ==> prediction
BLANK
 3 1 111 INER        2                             .157 { Col. 2 ==> Type-3 U.M.
                  1.125287
                  1.125287
C   Armature coils
                            MOTA              1
       .980484      .031413 MOTB              1
       .980484      .031413 MOTC              1
C    Rotor coils
      2.388701      .031413                   1
      2.388701      .031413                   1
BLANK card ending U.M. data
BLANK card ending SOURCEs
C  .......1.........2.........3.........4.........5.........6.........7.........8
C        NODE VOLTAGE OUTPUT
  MOTA  MOTB  MOTC
C  First  3     output variables are electric-network voltage differences (upper voltage minus lower voltage);
C  Final  7     output variables pertain to Type-19 U.M. components (names are generated internally);
C   Step      Time      MOTA       MOTB       MOTC       UM-1       UM-1       UM-1       UM-1       UM-1       UM-1       UM-1
C                                                        TQGEN      OMEGM      IPA        IPB        IPC        IE1        IE2
C ***      Phasor I(0) =  1.9294775E-17                     Switch  "INERS "  to  "IX    "  closed in the steady-state.
C      0       0.0  8164.95874 -4082.4879 -4082.4709        0.0        0.0        0.0        0.0        0.0        0.0        0.0
C      1     .5E-4   8163.9516 -3970.9169 -4193.0347 -.1455E-10        0.0 -8326.4506 4049.95584 4276.49477 -9920.3201 155.828901
C      2     .1E-3  .7986173E9 -.333422E9 -.465196E9 -.157354E9  213.40578 -.809326E9 .3378925E9 .4714332E9 -.965174E9 .8156453E8
BLANK card ending requests for node voltage output
C ------------------------------------------------------------------------------------------------------------------------------------
C ERROR/ERROR/ERROR/ERROR/ERROR/ERROR/ERROR/ERROR/ERROR/ERROR/ERROR/ERROR/ERROR/ERROR/ERROR/ERROR/ERROR/ERROR/ERROR/ERROR/ERROR/ERROR/
C ERROR/ERROR/ERROR/ERROR/ERROR/ERROR/ERROR/ERROR/ERROR/ERROR/ERROR/ERROR/ERROR/ERROR/ERROR/ERROR/ERROR/ERROR/ERROR/ERROR/ERROR/ERROR/
C ------------------------------------------------------------------------------------------------------------------------------------
C You lose, fella.   The EMTP logic has detected an error condition  ...
C    KILL code number            Overlay number           Nearby statement number
C             91                     19                          14400
C KILL = 91.   The mechanical speed iteration of the U.M. has failed to converge within iteration limit  ITUMAX = 20   at time  T =
C 1.50000000E-04.  This is for machine number  JM = 1,  which has a required convergence tolerance  EPSOM = 1.57000000E-01.  It is
C possible that the time-step  DELTAT  of the simulation is too large, or that  EPSOM  or  ITUMAX  is too small.  These are easily
C checked.  More complicated is nonconvergence due to an error with U.M. data, about which little can be said in general.
C      Further information supporting this  KILL = 91  error stop can be found
C      toward the end of the  .DBG  file.  Values of the OMEGM iteration appear:
C Error.  Speed iteration did not converge.  Look at the series of speeds:
C  2.76E+13 -9.62E+11 -2.36E+13 -2.20E+13 -2.95E+13  2.56E+13  2.46E+13 -2.89E+13
C -2.43E+13  2.64E+13 -2.71E+13  5.11E+12 -2.55E+13  6.30E+12  2.69E+13 -3.06E+12
C  2.19E+13 -7.18E+12  2.92E+13 -1.72E+13 -4.27E+12
BLANK card ending batch-mode plot cards
BEGIN NEW DATA CASE
C     4th of 7 subcases is the same as the preceding except that prediction has
C     been replaced by compensation.  In theory,  this is  TCOMP.  But in fact,
C     Gabor mistakenly sent a synchronous machine for TPRED and TCOMP.  The same
C     phenomenon can be illustrated using these,  but that is not being done.
C     Subsequent reception of  TPREDB  and  TCOMPB  contained the desired Type-3
C     data,  and this,  in fact,  is what is being used.  This simulation only
C     lasts 2.5 cycles, but can be extended to 1/4 second to see that OMEGM does
C     reach its terminal load speed of nearly 157 radians/sec (the synchronous
C     mechanical speed corresponding to zero slip).
C      WindSyn test case
C  generated on  4/13/03   for Single Cage  UM 3 -  decoupled start with compensation
NEW LIST SIZES
BLANK  { Default dimensioning is adequate for List 1 through 10
       0       0   36400
BLANK  { Default dimensioning is adequate for List 21 through 30
  240000   { Final card of VARDIM data is for offsets for supporting programs
C   The preceding 5 cards size tables for much longer simulations.  If dT is
C   smaller and/or T-max is much larger, List 13 will truncate batch-mode plots
C   over the entire timespan.  The preceding 36400 is the limit in LISTSIZE.BPA
POWER FREQUENCY, 50.0,
C AVERAGE OUTPUT  { Activate to suppress trap rule oscillation in armature volt.
 .000500    .050
       1       1       1       1       1      -1
       5       5
C        ELECTRIC NETWORK DATA
C BUS**>BUS**>BUS**>BUS**><****R<****L<****
C   short circuit level  =     83  MVA
C  the machine rating entered was      834.47   kVA
  SRCA  MOTA              .767   3.83
  SRCB  MOTB              .767   3.83
  SRCC  MOTC              .767   3.83
  MOTA                     1.E06
  MOTB                     1.E06
  MOTC                     1.E06
C
  INERS INER               1.E-6
  IX                                  7.E+07        {inetia in uF}
C   the damping term in ohms
        INER              .11                        {damping  1/mho}
BLANK ending BRANCHes
  INERS IX            -1     1000.
BLANK card ending SWITCHes
C        SOURCE DATA
C .......1.........2.........3.........4.........5.........6.........7.........8
C  Source voltages
14SRCA      8164.965     50.00       0.0       { Vt }
14SRCB      8164.965     50.00     240.0
14SRCC      8164.965     50.00     120.0
C
C   next  the source records required
C  source for the mechanical analogue
14INERS -1  0.000001  .0000001
C    Note about 4 preceding Type-14 sources.  Gabor Furst had  T-start of cols.
C    61-70 equal to -1.0,  but the effect was to add a small trapezoidal rule
C    oscillation to the armature voltages.  This then was removed by his use of
C    AVERAGE OUTPUT.  Well, removing the phasor solution not only saves the work
C    of this computation,  it also eliminates the trapezoidal rule oscillation
C    and does away with the need for  AVERAGE OUTPUT.  Otherwise, the startup
C    seems unaffected.  So, no phasor solution.  Since the machine begins with
C    all variables equal to zero, it is not surprising that the phasor solution
C    did little good.  Without the phasor solution,  this simulation is similar
C    to DC-35, note.  Each starts a 3-phase induction motor without either auto
C    initialization or manually-supplied initial conditions.  Each begins with
C    all variables equal to zero.
C  UM dat
19
C Col.2 = 0 Decoupled,  = 1 Autoinitialize -----  Col. 15 =0 Compensation,  =1 Prediction
 0            0 { Col. 2 ==> no automatic initialization; col. 15 ==> compensation
BLANK
C 3 1 111 INER        2                             .157  { Gabor's EPSOM
 3 1 111 INER        2                             .005
C    Note about preceding.  Gabor had EPSOM = .157, which is 0.1% of 157 radians
C    per second.  This is the default value:  the speed iteration will continue
C    until the change is less than 0.1% or synchronous speed = 2 * 3.14 * 50 =
C    314 rad/sec.  But this is electrical.  For mechanical, 2 pole pairs will
C    reduce this to 157 rad/sec.   Well,  the effect of using  EPSOM = .157  is
C    hash that looks almost like (but is not) trapezoidal rule oscillation.  The
C    frequency is high,  but less than  0.5/dT of the trapezoidal rule.  Lowered
C    EPSOM has no physical effect, & effects the overall simulation negligibly.
C    But the hash looks bad.  To prove that EPSOM is responsible, WSM decreases
C    the tolerance, thereby making the  OMEGM  curve perfectly smooth.
                  1.125287
                  1.125287
C   Armature coils
                            MOTA              1
       .980484      .031413 MOTB              1
       .980484      .031413 MOTC              1
C    Rotor coils
      2.388701      .031413                   1
      2.388701      .031413                   1
BLANK card ending U.M. data
BLANK card ending SOURCEs
  MOTA  MOTB  MOTC
C  First  3     output variables are electric-network voltage differences (upper voltage minus lower voltage);
C  Final  7     output variables pertain to Type-19 U.M. components (names are generated internally);
C   Step      Time      MOTA       MOTB       MOTC       UM-1       UM-1       UM-1       UM-1       UM-1       UM-1       UM-1
C                                                        TQGEN      OMEGM      IPA        IPB        IPC        IE1        IE2
C ***                    Switch  "INERS "  to  "IX    "  closed before  0.00000000E+00  sec.
C      0       0.0         0.0        0.0        0.0        0.0        0.0        0.0        0.0        0.0        0.0        0.0
C      1     .5E-3  7578.83363 -2749.8665 -4828.9671 -.8882E-14        0.0 -30.178727    10.9499 19.2288271 -35.938915 5.69216487
C      2     .1E-2  7266.22683 -1583.9333 -5682.2935 -.49474828        0.0 -88.512952 27.9245391 60.5884132 -105.37025  22.452127
C      3     .0015  6775.59911 -383.70148 -6391.8976 -5.3447769        0.0 -142.14459 35.0395236 107.105068 -169.12977 49.5195201
C      4      .002  6119.87287 821.040152  -6940.913   -21.8133        0.0 -189.82973 32.3949561 157.434779 -225.74199 85.8908064
C      5     .0025  5314.27286 2001.14898 -7315.4218 -59.931159        0.0 -230.46855 20.3228376 210.145711 -273.90453 130.343662
C     10      .005  -161.65687 6576.68037 -6415.0235 -1020.0826 .015959779 -302.60731 -155.04575 457.653057 -358.12087 419.838698
BLANK card ending request for node voltage outputs
C    100       .05  -7657.0908 3639.92922 4017.16154 -3480.5588 2.07810665 67.2105663 -384.61622 317.405655 9.05104642  474.85305
C Variable maxima:  7663.44456 7638.23782 7699.01515 12225.9976 3.05521655  428.48451  354.32403 561.493051 509.492281 713.091662
C Times of maxima:         .02      .0465       .013       .045      .0405      .0145       .041      .0075      .0145       .009
C Variable minima:  -7657.0908 -7725.8797 -7609.1885 -17792.623        0.0 -390.53593 -582.50024 -348.59254 -470.03027 -425.76675
C Times of minima:         .05      .0165       .043      .0345        0.0      .0445      .0105       .038       .045      .0395
  CALCOMP PLOT
 144 5. 0.0 50.         MOTA  MOTB  MOTC
 194 5. 0.0 50.         BRANCH
                        UM-1  IPA   UM-1  IPB   UM-1  IPC
 194 5. 0.0 50.         UM-1  IE1   UM-1  IE2
 194 5. 0.0 50.         UM-1  TQGEN
 194 5. 0.0 50. -1.  3.0UM-1  OMEGM
BLANK card ending batch-mode plot cards
BEGIN NEW DATA CASE
C     5th of 7 subcases is a corrected version of the 3rd.  Gabor Furst
C     reported his discovery in E-mail dated April 14th.  He proposed that
C     we  "initialize  ...  with the machine breaker open, thus the machine
C     isolated from the system, using autoinitialization for which prediction
C     ought to work.  Then we close the breaker say in the first time step.
C     ...  the run did not fail, but the ensuing transient was not the same
C     as obtained from the regular compensation  ...  Then something suddenly
C     dawned on me.  ...  I decided to fool ATP into reading a starting
C     frequency of 0.1 Hz, this the constant FREQ in record 1.  Lo and behold
C     this worked.  The results were the same as the run with the decoupled
C     compensation method."   As stored by WSM,  the latest data files have
C     names  TCOMPNEW  and  TPREDNEW.
C      WindSyn test case