BEGIN NEW DATA CASE
C     BENCHMARK DCNEW-19
C    18 February 1997,  two new features enter the UTPF.  These will be verified
C    by the following data.   See April newsletter for details about:  1) Walter
C    Powell's analytical type-10 source;   2) $PARAMETER  for both simple string
C    substitution and also mathematics at data-input time (Walter Powell pocket
C    calculator).  The Type-10 function can be put in cols. 11-60 if it fits, or
C    can be continued onto cols. 11-40 of the following card ordered by CONT. in
C    columns 61-61 of the first.  T-start and T-stop are always from ending card
C       August of 1998: replace Walter Powell's pocket calculator by one written
C       in Vancouver, USA.  Story is scheduled for the October newsletter.
$PARAMETER START ONLY   { This block of 3 cards is used only before any $INCLUDE
FIVEK= '5.E+3' { Within apostrophe ==> there is no math, just string replacement
BLANK card ends  $PARAMETER  definitions
     1.0     21.
       1       1
$PARAMETER   { This will be serviced by CIMAGE just as any other $-card would be
C ONEOHM = 0.5 * ( 1.0 + "DELTAT" ) { Within quotes ==> value of this ATP variable
ONEOHM = 0.5 * ( 1.0 + DELTAT ) { Beginning 28 Nov 98, quotes are no longer needed
C OMEGA = "TWOPI" * .05  ---  original frequency,  equal to that of Type-14 COS
C OMEGA_ = "TWOPI" * 0.1   { Speed the modulation of the ramp for visual effect
OMEGA_ = TWOPI * 0.1  { Beginning 28 November 98, quotes no longer are necessary
C ANGLE_ = .25 * "TWOPI"
ANGLE_ = .25 * TWOPI  { Beginning 28 November 98, quotes no longer are necessary
BLANK card ends  $PARAMETER  definitions that are processed just b4 branch cards
  COS                     ONEOHM                                               1
  SIN                     ONEOHM                                               1
  SIN2                       1.0
  SIN3                       1.0
  A1    A2                 5.E+3                                               1
  A2                       FIVEK
BLANK card ends branch cards
BLANK card ends switch cards (none, for this case)
14COS            1.0       .05       0.0
C 14SIN            3.0       .05      -90.     ----  old form of following card:
C 10SIN     3.0 * COS ( OMEGA * TIMEX - ANGLE )  { Walter Powell analytical source
10SIN     .1 * TIMEX + .8 * COS ( OMEGA_ * TIMEX - ANGLE_ )  { Walter Powell analytical source
10SIN2    .1 * TIMEX + .8 * COS ( OMEGA_ * TIMEX - ANGLE_ ) CONT.   { Note 61-65
          + 0.2 { continuation carries T-start, T-stop in 61-80 }  1.5      18.5
C    Note the preceding  SIN2  repeats SIN but with extra vertical offset of 0.2
C    on a continuation card.   Also,  SIN2 uses T-start (61-70) & T-stop (71-80)
10SIN3    IF( TIMEX .LE. 15. ) THEN     { If simulation time < 16 sec:
          SIN3 = TIMEX * 0.10           { Linear ramp up with slope matching SIN
          ELSE                          { Alternatively (if 16 or more seconds):
          SIN3 = ( 23.5 - TIMEX ) * .20 { Linear ramp down,  double the slope up
          ENDIF                       { Terminate 5-line block of Type-10 source
C    Note the preceding  SIN3  creates a saw tooth with the peak broken off to
C    create a flat top.  The value at 16 is equal to the value at 15.  Note that
C    the name of the bus in columns 3-8 of the Type-10 source card is repeated
C    within the IF-block (left of equal signs).  Control words  IF(  and  ELSE
C    and  ENDIF  must begin in column 10 exactly as illustrated.  As added on
C    11 December 2000,  ELSEIF(  also should be legal,  but is not being
C    illustrated in this data.
14A1         620000.       .06      -50.
BLANK card ends source cards
  SIN3  SIN   SIN2  COS   A2
C  First  5     output variables are electric-network voltage differences (upper voltage minus lower voltage);
C  Next   3     output variables are branch currents (flowing from the upper node to the lower node);
C  Step    Time  SIN3       SIN        SIN2       COS        A2         COS        SIN        A1
C                                                                       TERRA      TERRA      A2
C    0     0.0     0.0        0.0        0.0        0.0        0.0        0.0        0.0        0.0
C    1     1.0     0.1 .570084377        0.0 .951056516 272691.058 .951056516 .570084377 54.5382115
C    2     2.0     0.2 .960785678 1.16078568 .809016994 307819.308 .809016994 .960785678 61.5638615
C    3     3.0     0.3 1.06090928 1.26090928 .587785252  299715.25 .587785252 1.06090928 59.9430501
C    4     4.0     0.4 .870407977 1.07040798 .309016994 249517.077 .309016994 .870407977 49.9034154
C    5     5.0     0.5 .500237061 .700237061  .6123E-16 164274.972  .6123E-16 .500237061 32.8549944
C    6     6.0     0.6 .129975602 .329975602 -.30901699  55960.935 -.30901699 .129975602  11.192187
C    7     7.0     0.7 -.06076275 .139237247 -.58778525 -60212.649 -.58778525 -.06076275  -12.04253
C    8     8.0     0.8 .039067835 .239067835 -.80901699 -167929.55 -.80901699 .039067835 -33.585909
C    9     9.0     0.9  .42953207  .62953207 -.95105652 -252061.24 -.95105652  .42953207 -50.412247
BLANK card ends requests for program outputs (here, just node voltages)
C   10     10.     1.0 .999688816 1.19968882        -1. -300791.68        -1. .999688816 -60.158335
C   11     11.     1.1 1.56996442 1.76996442 -.95105652 -307276.82 -.95105652 1.56996442 -61.455363
C   12     12.     1.2 1.96073982 2.16073982 -.80901699 -270605.84 -.80901699 1.96073982 -54.121169
C   13     13.     1.3 2.06095504 2.26095504 -.58778525 -195929.08 -.58778525 2.06095504 -39.185817
C   14     14.     1.4 1.87052788 2.07052788 -.30901699 -93734.666 -.30901699 1.87052788 -18.746933
C   15     15.     1.5 1.50038531 1.70038531 -.1837E-15 21624.5069 -.1837E-15 1.50038531 4.32490137
C   16     16.     1.5 1.13009557 1.33009557 .309016994 133946.582 .309016994 1.13009557 26.7893164
C   17     17.     1.3 .939283118 1.13928312 .587785252 227456.258 .587785252 .939283118 45.4912516
C   18     18.     1.1 1.03902209 1.23902209 .809016994 289020.378 .809016994 1.03902209 57.8040757
C   19     19.     0.9 1.42941218        0.0 .951056516 309992.446 .951056516 1.42941218 61.9984891
C   20     20.     0.7 1.99954057        0.0        1.0 287426.995        1.0 1.99954057  57.485399
C   21     21.     0.5 2.56984444        0.0 .951056516 224493.277 .951056516 2.56984444 44.8986554
  CALCOMP PLOT
 143 2. 0.0 20. -1. 3.0 COS   SIN   SIN2  SIN3
BLANK card ending plot cards
BEGIN NEW DATA CASE
C     BENCHMARK DCNEW-19
C      2nd of 6 subcases is related to preceding.  Analytical function is too
C      long,  spilling over into T-start of columns 61-70.  Demonstrate special
C      handling to reject such data in civilized fashion.   28 October 1998
     1.0     21.
       1       1
C  19 March 2009,  WSM adds 2 unrelated symbol definitions  HANSOK and  HANSBAD.
C  But first,  add  a request to prohibit optimization by the pocket calculator.
C  Addition here is mandatory  until an error in optimization of the compilation
C  is corrected.  The troubled data are  formulas  for  HANSOK  and  HANSBAD  as
C  first reported by  Prof. Hans Kr. Hoidalen in Trondheim, Norway.  Without the
C  change making  NOOPT = 1,  execution would end on the HANSBAD input card with
C  an extraneous complaint about TACS (not being used).  With use of  NOOPT = 1,
C  the computation proceeds normally.  Although this is not  HFS data,  the loop
C  counter should have default value  KNT = 1  so  the right hand side correctly
C  evaluates to  10**1 = 10.   Execution still will end prematurely with that
C  complaint about too long an analytical function for  SIN,  but at least Prof.
C  Hoidalen's data is handled correctly.  WSM.
C  $PARAMETER   NOOPT=1 { Set optimization of pocket calculator compilation to none 
C    Comment out preceding line  1 October 2011 after correction was made to the
C    code that handles  TEMPx  variables within  POCKET.SPL  and nowhere else.  
$PARAMETER   { This will be serviced by CIMAGE just as any other $-card would be
OMEGA_ = "TWOPI" * 0.1   { Speed the modulation of the ramp for visual effect
ANGLE_ = .25 * "TWOPI"
C  Note about preceding quotation marks on  24 December 2000.  Whereas the first 
C  subcase demonstrated removal long ago,  this use is retained in its original, 
C  inefficient form as a demonstration of a new property.  With the introduction 
C  of non-volatile variables,  the quoted  TWOPI  continues to work as expected,
C  but it now demonstrates a new power.  The way MATDAT handle quotes,  they are
C  erased, and the line is preceded by a temporary definition TWOPI = 6.2832 ...  
C  which is taken as a SPY symbol (a variable in COMMON, recognized by SPY).  In
C  fact the answer is correct,  but  COMMON is being modified without the user's
C  knowledge or intention.  Old inefficiency (requiring a intermediate variable)
C  suddenly has been increased by unnecessary redefinition of a COMMON variable.
HANSOK  =10.**((KNT-1.)/20.+1.)     { works.  1st of 2 formulas from HKH
HANSBAD =10.**((KNT-1.)*0.05+1.)    { fails   2nd of 2 formulas from HKH
BLANK card ends  $PARAMETER  definitions that are processed just b4 branch cards
  COS                        1.0                                               1
  SIN                        1.0                                               1
BLANK card ends branch cards
C  2 April 2009,  WSM adds unrelated IF-THEN block that includes an intermediate
C  variable only.  Trouble using IF without a permanent variable was reported by
C  Prof. Hans Kr. Hoidalen in Trondheim, Norway. Although this is not  HFS data,
C  the loop counter should have default value KNT = 1 making the  IF-THEN  block
C  legal.  Add a dummy  switch card  to illustrate use of the permanent variable
C  CAP___ which depends on intermediate variable CAPI.  Execution still will end
C  prematurely with that complaint about too long an analytical function for the
C  variable SIN, but at least Prof. Hoidalen's IF-THEN will be handled properly.
C     Note about the following  IF(.  The use of  "equals one"
C     is arbitrary.  Changing  .EQ.  to  .NE.  will force control
C     through the  ELSE  alternative,  resulting in  CAPI = 5.0  rather
C     than  2.3,  and as a result,  CAP___ = 10  (see next line) :
C       Parameter 1  defined.  Value =  1.000000E+01    |CAP___ = 2.0 * CAPI
$PARAMETER   { This will be serviced by CIMAGE just as any other $-card would be
IF( KNT .EQ. 1.0 ) THEN { This is equivalent (THEN on right is not required)
CAPI = 2.3  $$     { The double dollar sign flags an intermediate variable, note
ELSE     { Alternatively (if not the first pass, so for KNT = 2 onward):
CAPI = 5.   $$     { The double dollar sign flags an intermediate variable, note
ENDIF   { Terminate 5-line block that defines intermediate symbol CAPI
CAP___ = 2.0 * CAPI { Define A6 permanent variable to be used in later data
BLANK card ending $PARAMETER block
C   Note about multiple intermediate variables within the  IF-THEN  block:
C   the logic probably would fail.  As now constituted,  one intermediate
C   variable is the limit within an  IF-THEN  block.  But more than one  IF-THEN
C   block is possible.  To illustrate,  let the desired second intermediate
C   variable  CAPJ  be defined within its own  IF-THEN  block as follows.  Also
C   for variety,  we will change  ".EQ. 1.0"  to  ".NE. 1.0"  to force the use
C   of the  ELSE   alternative: 
$PARAMETER { Separate $PARAM block ==> correct interpret line count within block
C   Added explanation of preceding line.  Without it and preceding BLANK line,
C   the answer would be correct except for line # of interpretation, which would
C   not return to value 1 for the IF( statement. Restarting this at 1 is clearer
C   is clearer for the user who looks closely at such details.  Numbering of the
C   interpretation then will be  1, 3, 4, and 5  instead of  3, 5, 6, and 7.
IF( KNT .NE. 1.0 )
CAPJ = ( KNT + 0.5 ) ** 2 $$     { For KNT equal to 1, this gives CAPJ = 2.25
ELSE     { Alternatively (if not the first pass, so for KNT = 2 onward):
CAPJ = ( KNT - 0.5 ) ** 2 $$     { If KNT were equal to 1, this would give 0.25
ENDIF    { Terminate 7-line block that defines symbols CAPI and CAPJ
IND___ = CAPJ / 2.0        { Inductance in cols. 33-38 of following series R-L-C
BLANK card ending $PARAMETER block
C  The following meaningless switch illustrates use of CAP___ & IND___ variables
  COS   SIN       CAP___    IND___
BLANK card ends switch cards
14COS            4.0       .05       0.0
C                              Ruler for T-start in 61:70:  1234567890
10SIN     0.1 * TIMEX + 0.8 * COS ( OMEGA_ * TIMEX - ANGLE_ ) { Too long function
BLANK card ends source cards
  SIN   SIN2  COS   A2
BLANK card ends requests for program outputs (here, just node voltages)
BLANK card ending plot cards
BEGIN NEW DATA CASE
C    3rd of 6 subcases illustrates Type-10 sources only.  dT-loop output will be
C    identical to that produced by famous TACS and MODELS simulations  (learning
C    how slow code from Laurent Dube really is).  With extension to 100K steps
C    and proper control of output,  this becomes  MATHTY10  as first used to
C    time operation of  POCKET  (WSM's new pocket calculator).
C      That might have been 1998. Twelve years later, the inefficiency of MODELS
C      is widely known. So distorting the data a little is permissible. Addition
C      of the GAUSS function to both TACS and the pocket calculator will require
C      verification.  DC-18 does the work for TACS.  Here,  on  10 October 2010,
C      we add such disconnected, unrelated output to the pocket calculator. WSM.
PRINTED NUMBER WIDTH, 10, 2,  { Request maximum precision (for 8 output columns)
     .02     2.0 
       1       1       0       0       1      -1
       5       5
  TEST1                      1.0
  TEST2                      1.0
  TEST3                      1.0
  TEST5                      1.0
  TEST6                      1.0
  TWO?                       1.0
  NORMAL                     1.0   { A Gaussian random # will be applied to this
BLANK card ends branch cards
BLANK card ends switch cards (none, for this case)
10TEST1    10.0 * ( 1.0 + TIMEX ) ** 2 + 50. 
10TEST2    1.E2 * COS ( 2.0 * 3.14159 * TEST1 / 100. )
10TEST3    10.0  +  5.5 * TIMEX * SQRT ( ABS ( TEST2 ) )
10TEST5    2.0 * 3.14159 * TEST1 / 100.
10TEST6    2.0 * SIN ( TEST5 )
C 10TWO?     2.E-4 * ( TEST2 ** 2 + 2500. * TEST6 ** 2 )
10TWO?     2.000E-4 * ( TEST2 ** 2 +                        CONT.
           2500. *  { Remember that T-start and T-stop are on right of this card
     1     TEST6 ** 2 ) { Illustrate conventional continuation line (1 in column
C                         6 preceded by 5 blanks).  With  or without CONT.,  any
C                         number of continuation cards can follow the original 1
C                         or two  (two if CONT. is used).  This is like FORTRAN.
10NORMAL   GAUSS ( 0.0 )  { Random function has zero mean and stand. deviation 1
BLANK card ending all sources
  TEST1 TEST2 TEST3 TEST5 TEST6 TWO?  NORMAL
C  Step     Time     TEST1     TEST2     TEST3     TEST5     TEST6     TWO?      NORMAL
C     0      0.0        0.0       0.0       0.0       0.0       0.0       0.0       0.0
C     1      .02     60.404   -79.384  10.98007  3.795292  -1.21625       2.0   -.26382
C     2      .04     60.816  -77.7833  11.94029  3.821179  -1.25694       2.0  .6641848
C     3      .06     61.236  -76.0979  12.87873  3.847568  -1.29755       2.0  -.384642
BLANK card ending node voltage outputs
C    90      1.8      128.4     -21.2  55.58307  8.067603  1.954539       2.0  1.195179
C    95      1.9      134.1  -54.1115  86.87076  8.425744  1.681897       2.0   .146522
C   100      2.0       140.  -80.9013  108.9396  8.796452  1.175583       2.0  .9643848
C Variable maxima :    140.  99.99389  108.9396  8.796452  1.999977       2.0  3.103447
C Times of maxima :     2.0      1.24       2.0       2.0      1.74       .04      1.68
C Variable minima :     0.0  -80.9013       0.0       0.0  -1.99999       0.0  -2.77845
C Times of minima :     0.0       2.0       0.0       0.0       .58       0.0       .82
  CALCOMP PLOT  
 143 .2 0.0 2.0         TEST1 TEST2 TEST3
 143 .2 0.0 2.0         TEST5 TEST6 TWO?
BLANK card ending plot cards
BEGIN NEW DATA CASE
C    4th of 6 subcases documents pocket calculator applied to many different
C    expressions.  Use Type-10 sources,  and take just 1 time step.  Prior to
C    16 November 2000,  this was separate disk file  POCKET.DAT     Following
C    diagnostic line should be activated to see all assembler (precedes "EOF").
C    For philosophy of this data,  see the April, 2001, newsletter.
C DIAGNOSTIC           0 0 0 0 9 0 0 0 0 0 0 0 0 0 0 9 9 9 9 9
C    The following illustrates the ability to change dimensions (offset
C    subscripts for VOLTI storage) of the pocket calculator.  Prior to
C    12 November 2000,  dimensions were 10 and 20,  so the following example
C    shows what resulted: an error stop do to inadequate INDOFF.  That was
C    prior to expansion of the default values of 60 and 120,  which handle
C    the present data subcase without difficulty.
C $PARAMETER   INDOFF=10  KONST=20   { Fixed limits prior to improvement 12 Nov 00
C Halt in  POCKET.  Overflow JTOKEN into INDOFF.   INDOFF, KCONST =   10   36
C  Temporary error stop in  ENTRY STOPTP of "WINDOW".     NCHAIN, LASTOV =      5     4
C $PARAMETER   INDOFF=60  KONST=120  { Do-nothing reassignment of default values
$PARAMETER   INDOFF=90  KONST=180  { Do-nothing reassignment of default values
C      Overhaul of storage for pocket calculator requires more List 4 space than
C      previously.  Add  NEW LIST SIZES  on 6 August 2010.  List 4 = 140 fails :
NEW LIST SIZES      { Request for a change to program table sizes (VARDIM input)
DEFAULT      3.0    { Any blank field will be converted to 3 times default value
       0       0       0     240      { List 4 < 840 of LISTSIZE.BPA is adequate
BLANK card for lists 11-20.
BLANK card for lists 21-30.
     390     300     { Optional card for Lists 31, etc. --- as LISTSIZE.BPA
  240000     742     { Offsets for supporting programs (non-simulation overlays)
PRINTED NUMBER WIDTH, 11, 1,  { Request maximum precision (for 8 output columns)
    .001    .001
       1     -11       0       0
C      Each analytical function will define a Type-10 source.  In turn, this
C      must be connected to a node of the electric network.  So, for each,
C      connect a 1-ohm resistor to ground:
C   1st set of 10 variables ANG* is for 1st row of 132-column output vector:
  ANG1                       1.0
  ANG2                       1.0
  ANG3                       1.0
  ANG4                       1.0
  ANG5                       1.0
  ANG6                       1.0
  ANG7                       1.0
  ANG8                       1.0
  ANG9                       1.0
  ANG10                      1.0
C   Next set of 10 variables BAL* is for 2nd row of 132-column output vector:
  CC                         1.0
  DD                         1.0
  THETA                      1.0
  OMEGA                      1.0
  BAL1                       1.0
  BAL2                       1.0
  BAL3                       1.0
  BAL4                       1.0
  BAL5                       1.0
  BAL6                       1.0
  BAL7                       1.0
  BAL8                       1.0
  BAL9                       1.0
  BAL10                      1.0
C   Next set of 10 variables CAT* is for 3rd row of 132-column output vector:
  UNITY                      1.0
  ZERO                       1.0
  CAT1                       1.0
  CAT2                       1.0
  CAT3                       1.0
  CAT4                       1.0
  CAT5                       1.0
  CAT6                       1.0
  CAT7                       1.0
  CAT8                       1.0
  CAT9                       1.0
  CAT10                      1.0
C   Next set of 10 variables DUM* is for 4th row of 132-column output vector:
  DUM1                       1.0
  DUM2                       1.0
  DUM3                       1.0
  DUM4                       1.0
  DUM5                       1.0
  DUM6                       1.0
  DUM7                       1.0
  DUM8                       1.0
  DUM9                       1.0
  DUM10                      1.0
C   Next set of 10 variables EAT* is for 5th row of 132-column output vector:
  EAT1                       1.0
  EAT2                       1.0
  EAT3                       1.0
  EAT4                       1.0
  EAT5                       1.0
  EAT6                       1.0
  EAT7                       1.0
  EAT8                       1.0
  EAT9                       1.0
  EAT10                      1.0
C   Next set of 10 variables FAT* is for 6th row of 132-column output vector:
  FAT1                       1.0
  FAT2                       1.0
  FAT3                       1.0
  FAT4                       1.0
  FAT5                       1.0
  FAT6                       1.0
  FAT7                       1.0
  FAT8                       1.0
  FAT9                       1.0
  FAT10                      1.0
C   Next set of 10 variables GAS* is for 7th row of 132-column output vector:
  GAS1                       1.0
  GAS2                       1.0
  GAS3                       1.0
  GAS4                       1.0
  GAS5                       1.0
  GAS6                       1.0
  GAS7                       1.0
  GAS8                       1.0
  GAS9                       1.0
  GAS10                      1.0
BLANK card ends branch cards
BLANK card ends switch cards (none, for this case)
C   1st set of 10 variables ANG* is for 1st row of 132-column output vector:
10ANG1     1.0
10ANG2     -1.0
10ANG3     ANG1
10ANG4     +ANG1
10ANG5     COS ( 1.0 )
10ANG6     SIN ( ANG3 )
10ANG7     SIN ( -ANG3 )
10ANG8     - SIN ( - ANG3 )
10ANG9     - ANG3 * ANG6 
10ANG10    - SIN ( ANG3 )
C   Next set of 10 variables BAL* is for 2nd row of 132-column output vector:
10CC       3.14159
10DD       2.71828
10THETA    CC
10OMEGA    DD
10BAL1     ( -CC + DD ) / ( -CC - DD )
10BAL2     ( -CC - DD ) / 3.1415
10BAL3     ( -CC + DD ) / ( CC - DD )
10BAL4     -( -CC + DD ) / ( CC - DD )
10BAL5     THETA * OMEGA
10BAL6     THETA + OMEGA
10BAL7     THETA - OMEGA
10BAL8     THETA / OMEGA
10BAL9     THETA + OMEGA + ANG5
10BAL10    THETA + OMEGA + ANG5 - TIMEX
C   Next set of 10 variables CAT* is for 3rd row of 132-column output vector:
10UNITY    1.0
10ZERO     0.0  { In addition to these, remember CC = 3.14159 and DD = 2.71828
10CAT1     CC .EQ. DD       { This is false, so CAT1 = 0.0
10CAT2     CC .NE. DD       { This is true,  so CAT2 = 1.0
10CAT3     CC .GT. DD       { This is true,  so CAT3 = 1.0
10CAT4     CC .LT. DD       { This is false, so CAT4 = 0.0
10CAT5     CC .GE. DD       { This is true,  so CAT5 = 1.0
10CAT6     CC .LE. DD       { This is false, so CAT6 = 0.0
10CAT7     .NOT. UNITY      { UNITY is true, so toggle it to false: CAT7 = 0.0
10CAT8     UNITY .OR. ZERO  { CAT8 = 1 since UNITY is true, & OR with anything is true
10CAT9     UNITY .AND. ZERO { CAT9 = 0 since ZERO is false, & AND with anything is false
10CAT10    UNITY .NOR. ZERO { CAT10 = 0 since OR first, then negate, so toggle CAT8
C   4th set of 10 variables DUM* is for 4th row of 132-column output vector:
10DUM1     UNITY .NAND. ZERO { DUM1 = 1 since AND first, then negate, so toggle CAT9
10DUM2     THETA / OMEGA + DD { DUM2 = 3.87400715 = 3.1416 / 2.718 + 2.718
10DUM3     THETA / OMEGA - DD { DUM3 = -1.562 = 3.1416 / 2.718 - 2.718
10DUM4     CC**DD             { DUM4 = 22.459 = 3.1416 ** 2.718
10DUM5     50.0 + CC**DD      { DUM5 = 72.459 = DUM4 + 50
10DUM6     TRUNC ( CC ) + INVRS ( CC ) { DUM6 = 3.318 = 3 (integer in 3.14) + 1 / 3.14
10DUM7     DEG ( CC )         { DUM7 = 180 (close) = 3.1416 converted to degrees
10DUM8     RAD ( DUM7 )     { DUM8 = 3.1416 = DUM7 deg converted back to radians
10DUM9     SIGN ( -CC ) - 3.0  { DUM9 = -4 = -1 - 3 = sign of ( -3.14 ) - 3
10DUM10    MINUS ( CC )      { DUM10 = -3.1416 = minus sign applied to Pi
C   5th set of 10 variables EAT* is for 5th row of 132-column output vector:
10EAT1     SEQ6 ( DUM4 )  { EAT1 = 4 since DUM4 = 22.4590591 / 6 ==> 4.459 remainder
10EAT2     - LOG ( DD )   { EAT2 = -1 (close) since DD = 2.71828 is close to e
10EAT3     LOG10 ( 200. ) { EAT3 = 2.3010 since log(10) of 2 = .3010
10EAT4     ATAN ( UNITY ) { EAT4 = .785398 = atan ( 1.0 ) = pi / 4 = 3.1416 / 4
10EAT5     EXP ( 2.0 * UNITY ) { EAT5 = 7.389 = 2.71828 ** 2
10EAT6     ASIN ( -ONEHAF )    { EAT6 = -.5236 = -30 degrees / 57.29578
10EAT7     ACOS (  ONEHAF )    { EAT7 = 1.0471 =  60 degrees / 57.29578
10EAT8     RAN ( ZERO )        { EAT8 = .813467631 (arg = 0 ==> next random #)
10EAT9     TANH ( UNITY )      { EAT9 = .761594156 
10EAT10    SINH ( UNITY ) / COSH ( UNITY ) { EAT10 = EAT9 by trig definition
C   6th set of 10 variables FAT* is for 6th row of 132-column output vector:
10FAT1     TAN ( CC / 6.0 )  { FAT1 = .5773 since arg CC / 6 = Pi/6 = 30 degrees
10FAT2     2.0 * COTAN ( 60. / 57.29578 ) { FAT2 = 1.1547 = 2 * FAT1 
10FAT3     1.0 / ABS ( UNITY * CC * DD )  { FAT3 = .1171 = 1 / ( 3.14 * 2.718 )  
10FAT4     - SQRT ( 2.0 ) * 0.5  { FAT4 = -.707 = sqrt ( 2 ) * 1/2  
10FAT5     - 2.0 ** 2 + UNITY    { FAT5 = -3 = -4 + 1  
10FAT6     (-2.0) ** 2 + UNITY   { FAT6 = 5 = 4 + 1  
10FAT7     - EXP ( UNITY * CC / DD ) - 0.1  { FAT7 = -3.276 = -EXP ( 3.14 / 2.718 ) - 0.1
10FAT8     ( UNITY / DD * CC ) * 2.0 - UNITY { FAT8 = 1.311 = ( 3.1416 / 2.718 ) * 2 - 1
10FAT9     UNITY - ( UNITY * DD + CC ) { FAT9 = -4.860 = 1 - ( 3.14 + 2.718 )
10FAT10    UNITY * DD - CC { FAT10 = -.4233 = 2.718 - 3.14 = 1 * 2.718 - 3.1416
C   7th set of 10 variables GAS* is for 7th row of 132-column output vector:
10GAS1     UNITY * ( CC / DD / UNITY ) { GAS1 = 1.156 = 3.14 / 2.718 = Pi / e / 1
10GAS2     CC ** 2 + DD ** 2           { GAS2 = 17.26 = 3.14 ** 2 + 2.718 ** 2
10GAS3     CC ** 2 - DD ** 2           { GAS3 =  2.48 = 3.14 ** 2 - 2.718 ** 2
C              3 December 2001, add variables to confirm correction of the error
C              first reported by Orlando Hevia using data EXP.DAT    Note GAS4
C              through GAS9 all have same value  EXP(-T) = 1 / EXP(.001) = .999
10GAS4     1.0 / EXP ( TIMEX ) { This establishes the right answer (no bug here)
10GAS5     EXP(-(TIMEX*1.0))   { Hevia showed that this, too, always was correct
10GAS6     EXP ( -TIMEX )      { Hevia showed that this, too, always was correct
10GAS7     EXP( -TIMEX * 1.0 )   { Prior to correction on 3 December, error stop
10GAS8     EXP( -TIMEX / 1.0 )   { Prior to correction on 3 December, error stop
10GAS9     EXP( -TIMEX * UNITY ) { Prior to correction on 3 December, error stop
10GAS10    28.0 - 25.0 - ( TIMEX - 1.0 )  { Verify correction on  9 January 2002
BLANK card ending all sources
  ANG1  ANG2  ANG3  ANG4  ANG5  ANG6  ANG7  ANG8  ANG9  ANG10
  BAL1  BAL2  BAL3  BAL4  BAL5  BAL6  BAL7  BAL8  BAL9  BAL10
  CAT1  CAT2  CAT3  CAT4  CAT5  CAT6  CAT7  CAT8  CAT9  CAT10
  DUM1  DUM2  DUM3  DUM4  DUM5  DUM6  DUM7  DUM8  DUM9  DUM10
  EAT1  EAT2  EAT3  EAT4  EAT5  EAT6  EAT7  EAT8  EAT9  EAT10
  FAT1  FAT2  FAT3  FAT4  FAT5  FAT6  FAT7  FAT8  FAT9  FAT10
  GAS1  GAS2  GAS3  GAS4  GAS5  GAS6  GAS7  GAS8  GAS9  GAS10
C Step   Time  ANG1  ANG2  ANG3  ANG4    ANG5       ANG6       ANG7      ANG8        ANG9       ANG10
C   1   .1E-2  1.0   -1.   1.0   1.0 .540302306 .841470985 -.84147098 .841470985 -.84147098 -.84147098
C        BAL1       BAL2    BAL3   BAL4       BAL5    BAL6     BAL7      BAL8      BAL9       BAL10
C    .072238804 -1.8653096   -1.    1.0  8.53972127  5.85987  .42331 1.15572715 6.40017231 6.39917231
C   CAT1    CAT2    CAT3    CAT4   CAT5    CAT6    CAT7    CAT8   CAT9   CAT10
C    0.0     1.0     1.0     0.0    1.0     0.0     0.0     1.0    0.0     0.0
BLANK card ending node voltage outputs
C  DUM1     DUM2       DUM3       DUM4       DUM5       DUM6       DUM7     DUM8  DUM9     DUM10
C   1.0 3.87400715 -1.5625528 22.4590591 72.4590591 3.31831016 179.999848  3.14159   -4.  -3.14159
C  EAT1       EAT2       EAT3       EAT4       EAT5       EAT6       EAT7       EAT8       EAT9       EAT10
C   4.0 -.99999933    2.30103 .785398163  7.3890561 -.52359878 1.04719755 .813467631 .761594156 .761594156
C    FAT1       FAT2       FAT3       FAT4   FAT5 FAT6       FAT7      FAT8     FAT9   FAT10
C .57734968 1.15470056 .117099841 -.70710678  -3.  5.0 -3.2763323 1.3114543 -4.85987 -.42331
C     GAS1       GAS2       GAS3      GAS4      GAS5    GAS6     GAS7     GAS8     GAS9    GAS10
C  1.15572715 17.2586339 2.48054157 .9990005 .9990005 .9990005 .9990005 .9990005 .9990005  3.999
BLANK card ending plot cards
BEGIN NEW DATA CASE
C     5th of 6 subcases documents pocket calculator applied to many intermediate
C     variables.  This was the beginning of  Orlando Hevia's  R7U.DAT  which was
C     added  6 August 2010.  Exceptional Lists 4 & 26 are close to their minima.
C     The electrical network was substantial,  but is of no interest here so has
C     been omitted.  The  $PARAMETER  data seemed plenty creative to WSM. Volume  
C     is unlimited as  KNT  is unlimited.  But who deserves credit for imagining
C     such use?  Perhaps Prof. Hans Kr. Hoidalen, the author of ATPDraw!  E-mail
C     from Mr. Hevia  dated  Sunday, August 15, 2010  explained:  "The lines are