BEGIN NEW DATA CASE
C     BENCHMARK DCNEW-12
C     Automatic steady-state initialization for Type-4 U.M. (a 3-phase induction
C     machine).   Power coils are non-compensated.   Rotor  coils  have external
C     resistances.   Apply  a step to the input torque at  0.02 sec  (step 100).
C                Rating: 720 KVA, 4.2 KV, 4-pole ( 85.67% efficiency at 0.846 pf
C                      and 14.0E+3 NM.;  Kipp torque = 45.09E+2 NM, slip = 2.5%)
C       4 May 2006, append the 8 subcases of  IM.DAT  making a total of 9.  This
C       is to document use of the new Type-56 Induction Machine from TEPCO.
PRINTED NUMBER WIDTH, 13, 2,  { Request maximum precision (for 8 output columns)
ABSOLUTE U.M. DIMENSIONS, 20, 2, 50, 60
0.0002     0.900
       1       2       0       0       1      -1
       5       5      20      20     100       1     110      10     200     200
C  --------- ROTOR EXTERNAL RESISTANCES
  BUSA1                   1.E-10                                               1
  BUSB1       BUSA1                                                            1
  BUSC1       BUSA1                                                            1
C  -------- TRANSMISSION LINES
  BUSA2 BUSAS2            1.0E-4 10.0                                          1
  BUSB2 BUSBS2BUSA2 BUSAS2                                                     1
  BUSC2 BUSCS2BUSA2 BUSAS2                                                     1
C  --------- CONNECTIVITY OF EMTP FOR ELECTRIC NETWORK
  BUSAS2                  1.0E+6
  BUSBS2      BUSAS2
  BUSCS2      BUSAS2
C  --------- MECHANICAL NETWORK COMPONENTS
  BUSMG BUSMGR            .4548                                                1
  BUSMGR      BUSMG BUSMGR
  BUSMG                               9.8E+7  { Rotor mass = capacitance }     1
C  ------- Near-zero resistance to measure electromechanical torque (a current):
  BUSMS BUSMG             1.0E-6                                               1
BLANK card ending all branch cards
BLANK card ending all (here, nonexistent) switch cards
C  --------- SOURCES FOR INFINITE BUS
14BUSAS2  3000.0     60.0     0.0                           -1.0
14BUSBS2  3000.0     60.0     -120.0                        -1.0
14BUSCS2  3000.0     60.0     +120.0                        -1.0
C  ----------- Mechanical input torque, with value set by steady-state solution:
14BUSMS -1 0.000001  0.00001                                -1.0
C  --------  Step change to input torque occurs at time .020 seconds (Step 100):
14BUSMS -1 3900.0    0.00001                                +0.02
C  ----------------------- Type-4 U.M. (3-phase induction machine) data follows:
19 UM
 1            1
BLANK card ending Class-1 U.M. data
C  UM-1 MACH TABLE
 4    111BUSMG        2                            0.0188
              0.02358
              0.02358
2.0                               BUSMS
C  UM-1  COIL TABLE
                            BUSA2             1
0.412         0.0012        BUSB2             1
0.412         0.0012        BUSC2             1
0.110         0.0012        BUSB1             1
0.110         0.0012        BUSC1             1
                            BUSA1             1
BLANK card ending all U.M. data cards
BLANK card ending all source cards
C       Total network loss  P-loss  by summing injections =   7.171020819312E+05
C       Total network loss  P-loss  by summing injections =   8.732408663441E+05
C       Total network loss  P-loss  by summing injections =   1.223706646064E+07
C       Total network loss  P-loss  by summing injections =   1.223706596064E+07
C       Total network loss  P-loss  by summing injections =   1.223707382155E+07
C             Zero-th time step documents initial conditions, cut on right edge:
  BUSAS2BUSA2 BUSA1 BUSMG
C  Step    Time        BUSAS2       BUSA2        BUSA1        BUSMG        BUSA1
C                                                                          TERRA
C
C                      BUSB2        BUSC2        BUSMG        BUSMG        BUSMS
C                      BUSBS2       BUSCS2       BUSMGR       TERRA        BUSMG
C
C                       UM-1         UM-1         UM-1         UM-1         UM-1
C                        IPA          IPB          IPC          IE1          IE2
C    0     0.0         3000.  1784.374676  .1471233E-7   184.725648  147.1233291
C                376.2746526  -182.224238  203.0844855          0.0  -3965.07077
C                -194.050415  376.2746526  -182.224238          0.0          0.0
C    1   .2E-3   2991.476701  1834.404076  .1467203E-7  184.7256479  146.7202619
C                374.6920464  -156.915064  203.0844854  -.092695802  -3965.07077
C                -217.776982  374.6920464  -156.915064  161.7505543  -308.470816
BLANK card ending output requests (node voltages only, here)
C    For some unknown reason, these agree with VAX to only 4 or 5 digits, often:
C  4500     0.9        3000.  2139.363254  -.929034E-9  188.3186232  -9.29033753
C                206.6043639  -188.546337  207.0345461  -12.7407524  -65.0707659
C                -18.0580266  206.6043639  -188.546337  15.99476461  -6.70442708
C Variable max :       3000.  2142.192646  .1471233E-7   189.143889  147.1233291
C                376.2746526  376.1164039  207.9418304  3898.215212  -65.0707659
C                376.0215626  376.2746526  376.1164039  228.3663773  6.204481463
C Times of max :         0.0        .5668          0.0        .2202          0.0
C                        0.0        .0222        .2202        .0202        .8786
C                       .011          0.0        .0222        .0544        .3316
C Variable min :      -3000.  -2142.13595  -.123856E-8  184.7253125   -12.385633
C                -375.871946  -376.188889  203.0841166  -661.121518  -3965.07077
C                -376.241942  -375.871946  -376.188889  -24.9469672   -362.34101
C Times of min :        .075        .5418         .564          .02         .564
C                      .0082        .0138          .02        .3084          0.0
C                      .0194        .0082        .0138        .3076          0.0
  PRINTER PLOT
 193 .1 0.0 0.9         UM-1  TQGEN               { Axis limits: (-4.168, 0.389)
BLANK card ending plot cards
BEGIN NEW DATA CASE
C     2nd of 9 subcases of  BENCHMARK DCNEW-12  is added  4 May 2006.
C  1st of  8 data subcases that illustrate Type-56 TEPCO IM (induction machine).
C  Begin several illustrations of TEPCO (Tokyo Electric Power Company in Japan)
C  IM  (Induction Machine)  model that entered the UTPF on  7 April 2006.  The
C  coding is by Cao Xinglin of TEPCO Systems Corp,  as communicated to BPA via
C  Atsushi Kurita of TEPCO.  Number 56 is the new ATP source type code that is
C  to appear in columns 1-2 at the beginning of IM data.  First,  ATPIG56.DAT
C  The TEPCO data had 21 permanently-closed switches of which only 6 have been
C  retained.  The remainder were removed without any confusion or difficulty
C  in order to drop nonessenttial and unrelated complexity.  The six switches
C  that have been retained serve to pass armature currents of the two parallel
C  machines to TACS.  The phasor solution output of the switches clearly shows
C  opposite directions for the power flow:  positive (out) of the generator IG1
C  and negative (into) the motor IM1.  The phasor solution  provides very good
C  initialization,  and simulation of this continues for 1.25 cycles in the dT
C  loop to demonstrate stability of the steady state.  Most machine variables
C  are nearly constant as extrema clearly demonstrate.  The original TEPCO data
C  simulated to 10 seconds (5000 cycles) to demonstrate longer-term stability,
C  but this has been drastically shortened to save computer time.
C     G400   PG=500kW,QG=-232kVar
C     L300   PL=250kW
C     L400   PL=200kW,QL=-259kVar
C     M400   PL=50kW,QL=27kVar
C     MODE   G400:LV
PRINTED NUMBER WIDTH, 11, 1,    { Restore values that are common within STARTUP
POWER FREQUENCY, 50.,    { So one cycle is 20 msec, note
C 0.00025     10.     0.0     0.0   ---  TEPCO's T-max was 10 seconds, note
 0.00025    .025     0.0     0.0  { 1.25 cycles is enough to verify steady state
       1       1       1       1       1      -1
       5       5      20      20     100     100
TACS HYBRID
33VIG   PIGEN QIGEN PIM   QIM 
C
C /// G1 BRANCH VOLTAGE MONITOR ///
  VAB     +N400A  -N400B                             1.0
90N400A                                                      -1.0
90N400B                                                      -1.0
90N400C                                                      -1.0
91IG1A                                                       -1.0
91IG1B                                                       -1.0
91IG1C                                                       -1.0
91IM1A                                                       -1.0
91IM1B                                                       -1.0
91IM1C                                                       -1.0
C ///  VOLTAGE FEED BACK ///
99VIG     = SQRT(N400A*N400A+N400B*N400B+N400C*N400C)/6600.0
C ///  POWER MONITOR(I.G.) ///
99QIG1    = IG1A*(N400B-N400C)
99QIG2    = IG1B*(N400C-N400A)
99QIG3    = IG1C*(N400A-N400B)
99QIGEN   = (QIG1+QIG2+QIG3)/SQRT(3.0)
99PIGEN   = N400A*IG1A+N400B*IG1B+N400C*IG1C
99PPIG    = PIGEN/1000000.
99QQIG    = QIGEN/1000000.
99QIM1    = IM1A*(N400B-N400C)
99QIM2    = IM1B*(N400C-N400A)
99QIM3    = IM1C*(N400A-N400B)
99QIM     = (QIM1+QIM2+QIM3)/SQRT(3.0)
99PIM     = N400A*IM1A+N400B*IM1B+N400C*IM1C
99PPIM    = PIM/1000000.
99QQIM    = QIM/1000000.
C
C /// TACS OUTPUT VARIABLES ///
C 33PPIG  QQIG  PPIM  QQIM
C /// TACS INITIAL CONDITIONS ///
77VIG         1.00478
77PPIG       .5000
77QQIG       -.232
77PIGEN      500000.
77QIGEN      -232000.
77PIM        -50000.
77QIM        -27600.
C
C --*----1----*----2----*----3----*----4----*----5----*----6----*----7----*----8
BLANK card ends TACS data
C /// NETWORK DATA ///
$VINTAGE, 1
C Bus1->Bus2->Bus3->Bus4-><---------R(ohm)<----------L(mH)<---------C(mmF)
C *** XS *** ( j0.012(pu) : 0.1663869437mH )
  N100A N200A                             .1663869437                          
  N100B N200B N100A N200A 
  N100C N200C N100A N200A          
C *** XT *** ( j0.075(pu) : 1.039918398mH )
  N200A N300A                             1.039918398
  N200B N300B N200A N300A   
  N200C N300C N200A N300A
C *** ZL *** ( 0.2+j0.312(pu) : 0.8712ohm,4.326060536mH )
  N300A N400A             0.871200000     4.326060536
  N300B N400B N300A N400A 
  N300C N400C N300A N400A 
C ***OUTSIDE LOAD*** ACCB POWER FLOW P=250W 
  N300A                   174.2211826
  N300B       N300A
  N300C       N300A
C ***INSIDE LOAD*** ( 1.00478)
  N400A                   221.1645148                   
  N400B       N400A                   
  N400C       N400A              
        N400A                                             18.56624062
        N400B       N400A       
        N400C       N400A
$VINTAGE, 0
C
BLANK card ends electric network branches
C --*----1----*----2----*----3----*----4----*----5----*----6----*----7----*----8
C /// SWITCH DATA ///
C    Only 6 of the 21 original switches are retained.  This allows separate
C    names for the two IM busses even though the two are in parallel.  In
C    fact,  IG1A  is the same as  IM1A,  etc. for B and C:
  IG1A  N400A                                         MEASURING
  IG1B  N400B                                         MEASURING
  IG1C  N400C                                         MEASURING
  IM1A  N400A                                         MEASURING
  IM1B  N400B                                         MEASURING
  IM1C  N400C                                         MEASURING
BLANK card ends switches
C /// SOURCE DATA ///
C <BUS----<VOLT-----<FREQ-----<ANGLE----(1.0pu:5388.87743v)
14N100A   5388.87743   50.0      0.0                         -1.0
14N100B   5388.87743   50.0   -120.0                         -1.0
14N100C   5388.87743   50.0   -240.0                         -1.0
C 
C |BUS |  |  SLIP  ||  TM0   |
C | A6 |  |  E10.6 ||  E10.6 |
56IG1A    -0.785129 0.0          
56IG1B
56IG1C
C CLASS2
C TY  <NP><  RMVA  ><  RSKV  ><  FREQ  >
 0       1  0.625    6.6      50.0
C   Rs   ||   Lsl  ||   Rr   ||   Lrl  ||  Msru  ||  Msrs  ||  Flxs  |
C  E10.6 ||  E10.6 ||  E10.6 ||  E10.6 ||  E10.6 ||  E10.6 ||  E10.6 |
0.0113     0.0903    0.0093    0.114     4.3                                    
C CLASS3
C         |    M   ||    D   ||  EMSOM | |NM|P|E|M|
C         |  E10.6 ||  E10.6 ||  E10.6 | |I4|I2I2I2
           1.12        0.0                    1 1 1
C CLASS4
C   T    ||   TM   |    |TBUS|
C  E10.6 ||  E10.6 |    | A6 |
C 0.02    .000264555
            9999   { Special terminator for any Class-4 data of Type-56 IM
C CLASS5
C | BUS|N|
C | A4 |I2
  FINISH      { Key word that ends data for this particular (the 1st of 2) IM
C |BUS |  |  SLIP  ||  TM0   |
C | A6 |  |  E10.6 ||  E10.6 |
56IM1A    2.736296   0.0         
56IM1B
56IM1C
C CLASS2
C TY  <NP><  RMVA  ><  RSKV  ><  FREQ  >
 0       1  0.0625   6.6      50.0
C   Rs   ||   Lsl  ||   Rr   ||   Lrl  ||  Msru  ||  Msrs  ||  Flxs  |
C  E10.6 ||  E10.6 ||  E10.6 ||  E10.6 ||  E10.6 ||  E10.6 ||  E10.6 |
0.062      0.075     0.031     0.075     2.58                                   
C CLASS3
C         |    M   ||    D   ||  EMSOM | |NM|P|E|M|
C         |  E10.6 ||  E10.6 ||  E10.6 | |I4|I2I2I2
           1.97        0.0                    1 1 1
C CLASS4
C   T    ||   TM   |    |TBUS|
C  E10.6 ||  E10.6 |    | A6 |
C 0.02    .000264555
            9999  { Special terminator for any Class-4 data of Type-56 IM
C CLASS5
C | BUS|N|
C | A4 |I2
  FINISH      { Key word that ends data for this particular (the 2nd of 2) IM
BLANK card terminating ATP source cards
C       Total network loss  P-loss  by summing injections =   8.693842500266E+01
C Output for steady-state phasor switch currents.
C  Node-K  Node-M      I-real          I-imag           I-magn      Degrees       Power          Reactive
C  IG1A    N400A   6.13352336E+01  2.91346671E+01   6.79031642E+01  25.4080   1.66673295E+05 -7.75683916E+04
C  IG1B    N400B  -5.43625497E+00 -6.76852040E+01   6.79031642E+01 -94.5920   1.66673295E+05 -7.75683916E+04
C  IG1C    N400C  -5.58989787E+01  3.85505369E+01   6.79031642E+01 145.4080   1.66673295E+05 -7.75683916E+04
C  IM1A    N400A  -6.18285824E+00  3.35138837E+00   7.03274769E+00 151.5403  -1.66673368E+04 -9.20498467E+03
C  IM1B    N400B   5.99381659E+00  3.67881812E+00   7.03274769E+00  31.5403  -1.66673368E+04 -9.20498467E+03
C  IM1C    N400C   1.89041650E-01 -7.03020649E+00   7.03274769E+00 -88.4597  -1.66673368E+04 -9.20498467E+03
C
C Column headings for the  29   EMTP output variables follow.  These are divided among the 5 possible classes as follows ....
C  Next   24     output variables belong to IM  (with "IM"  an internally-added upper name of pair).
C  Next   5     output variables belong to TACS (with "TACS" an internally-added upper name of pair).
C Step    Time      IM-1       IM-1       IM-1       IM-1       IM-1       IM-1       IM-1       IM-1       IM-1       IM-1
C                   P          Q          ISA        ISB        ISC        IRA        IRB        IRC        WR         ANG
C
C                   IM-1       IM-1       IM-2       IM-2       IM-2       IM-2       IM-2       IM-2       IM-2       IM-2
C                   TQ         TM         P          Q          ISA        ISB        ISC        IRA        IRB        IRC
C
C                   IM-2       IM-2       IM-2       IM-2       TACS       TACS       TACS       TACS       TACS
C                   WR         ANG        TQ         TM         VIG        PIGEN      QIGEN      PIM        QIM
C ***      Phasor I(0) =  6.1335234E+01                     Switch  "IG1A  "  to  "N400A "  closed in the steady-state.
C ***      Phasor I(0) = -5.4362550E+00                     Switch  "IG1B  "  to  "N400B "  closed in the steady-state.
C ***      Phasor I(0) = -5.5898979E+01                     Switch  "IG1C  "  to  "N400C "  closed in the steady-state.
C ***      Phasor I(0) = -6.1828582E+00                     Switch  "IM1A  "  to  "N400A "  closed in the steady-state.
C ***      Phasor I(0) =  5.9938166E+00                     Switch  "IM1B  "  to  "N400B "  closed in the steady-state.
C ***      Phasor I(0) =  1.8904165E-01                     Switch  "IM1C  "  to  "N400C "  closed in the steady-state.
C    0     0.0  500019.886 -232705.17 61.3352336  -5.436255 -55.898979 -11.518219 60.1819687  -48.66375 316.625821 1.57079633
C               1608.95108 1608.95108 -50002.011 -27614.954 -6.1828582 5.99381659  .18904165 -.58621064 -5.1267795 5.71299012
C               305.562938 1.57079633 -148.95686 -148.95686     1.0047    500000.   -232000.    -50000.    -27600.
C    1  .25E-3  500145.619 -232725.27 58.8756131 -.11553737 -58.760076 -11.479526 60.1817443 -48.702218 316.625814 1.64995278
C               1609.32268 1608.95108 -49988.051 -27614.135 -6.4248212 5.68592478 .738896446 -.57282271 -5.1329244 5.70574715
C               305.562934 1.64718706 -148.91265 -148.95686 1.00481726 500145.619 -232725.27 -49988.051 -27614.135
C    2   .5E-3  500279.634 -232738.55 56.0518759 5.20801006 -61.259886 -11.440363 60.1804072 -48.740044 316.625795 1.72910923
C                1609.6677 1608.95108 -49976.514 -27614.492 -6.6274021 5.34328199 1.28412013 -.55938995 -5.1392418 5.69863173
C               305.562921 1.72357779 -148.87311 -148.95686 1.00485913 500279.634 -232738.55 -49976.514 -27614.492
BLANK card ending names of ATP output variables (none for this case)
C  100    .025  500666.577 -231710.46 -29.009861  67.689943 -38.680082 -7.5010766 58.7427696 -51.241693 316.626251 9.48642268
C               1610.05009 1608.95108 -50027.397 -27567.289 -3.3454225 -3.6840913 7.02951382 .767497344 -5.7887829 5.02128552
C               305.560218 9.20981993 -148.95965 -148.95686 1.00485987 500666.577 -231710.46 -50027.397 -27567.289
C Variable max: 501351.888 -230444.64 67.8036384 67.9774295 67.7273265 -7.5010766 60.1819687  -48.66375  316.62671 9.48642268
C               1612.20306 1608.95108  -49882.18 -27466.013 7.01961078 7.02912135 7.02951382 .767497344 -5.1267795 5.71299012
C               305.562938 9.20981993 -148.58255 -148.95686  1.0049302 501351.888 -230444.64  -49882.18 -27466.013
C Times of max:       .005        .01      .0185     .00525       .012       .025        0.0        0.0       .021       .025
C                    .0045        0.0      .0045       .009      .0115     .01825       .025       .025        0.0        0.0
C                      0.0       .025     .00475        0.0      .1E-2       .005        .01      .0045       .009
C Variable min: 499173.557 -232738.55 -67.822794 -67.743906 -67.960287 -11.518219 58.7427696 -51.241693 316.623142 1.57079633
C               1605.49808 1608.95108 -50027.634 -27615.163 -7.0288686 -7.0157093 -7.0236834 -.58621064 -5.7887829 5.02128552
C               305.560211 1.57079633 -148.96079 -148.95686     1.0047 499173.557 -232738.55 -50027.634 -27615.163
C Times of min:       .015      .5E-3      .0085     .01525       .002        0.0       .025       .025       .009        0.0
C                    .0145        0.0       .024     .75E-3      .0215     .00825       .015        0.0       .025       .025
C                   .02175        0.0     .02375        0.0        0.0       .015      .5E-3       .024     .75E-3
  PRINTER PLOT  { No need for vector plotting as all variables are smooth
 1942.5 0.  25.         BRANCH                   { Plot limits: (-7.029,  7.029)
                        IM-2  ISA   IM-2  ISB   IM-2  ISC
BLANK card ending batch-mode plot cards
BEGIN NEW DATA CASE
C     3rd of 9 subcases of  BENCHMARK DCNEW-12  is added  4 May 2006.
C  2nd of  8 data subcases that illustrate Type-56 TEPCO IM (induction machine).
C  For background of the model,  see top of 1st subcase.  This second case is a
C  simplification of  ATPIGT56.DAT  which has just a single  IM.  Like the first
C  subcase,  this second one involves no transient.  The phasor solution merely
C  is continued for one cycle to confirm the sinusoidal steady state.  Of the
C  original 19 permanently-closed switches,  only 10 could be eliminated without
C  tampering with TACS control system logic.  The 9 switches that remain are
C  used to pass currents to TACS.  As for outputs,  these have been reduced
C  drastically by elimination of the request for every node voltage (a 1-punch
C  in column 2).  This reduces the voltage outputs from 31 to 0.
POWER FREQUENCY, 50
C 0.00025    1.0      0.0     0.0 { TEPCO simulation extended to Tmax = 1 sec
 0.00025    .020     0.0     0.0
       1       1       1       1       1      -1
       5       5      20      20  
TACS HYBRID
C OUTPUT
33VIG   PPIG  QQIG  TM
C
88FLG1    = TIMEX .GE. 0.1
88FLG2    = TIMEX .GE. 0.5
88TM      = 1.0+FLG1*0.2+FLG2*0.3
77TM        1.0
C /// G1 BRANCH VOLTAGE MONITOR ///
  VAB     +N400A  -N400B                             1.0
90N400A                                                      -1.0
90N400B                                                      -1.0
90N400C                                                      -1.0
91IG1A                                                       -1.0
91IG1B                                                       -1.0
91IG1C                                                       -1.0
C ///  VOLTAGE FEED BACK ///
99VIG     = SQRT(N400A*N400A+N400B*N400B+N400C*N400C)/6600.0
C ///  POWER MONITOR(I.G.) ///
99QIG1    = IG1A*(N400B-N400C)
99QIG2    = IG1B*(N400C-N400A)
99QIG3    = IG1C*(N400A-N400B)
99QIGEN   = (QIG1+QIG2+QIG3)/SQRT(3.0)
99PIGEN   = N400A*IG1A+N400B*IG1B+N400C*IG1C
99PPIG    = PIGEN/1000000.
99QQIG    = QIGEN/1000000.
C
C ***************  CONTROLL MODEL BLOCK **************
C
90N300A                                                      -1.0
90N300B                                                      -1.0
90N300C                                                      -1.0
91N250A                                                      -1.0
91N250B                                                      -1.0
91N250C                                                      -1.0
C /// POWER MONITOR ACCB(BETWEEN N250 AND N300) ///
99QCB1    = N250A*(N300B-N300C)
99QCB2    = N250B*(N300C-N300A)
99QCB3    = N250C*(N300A-N300B)
99QACCB   = ((QCB1+QCB2+QCB3)/SQRT(3.0))/1000.
99PACCB   = (N300A*N250A+N300B*N250B+N300C*N250C)/1000.
C 33PACCB
C 33QACCB
C /// L300 P & Q ///
91N400AD                                                     -1.0
91N400BD                                                     -1.0
91N400CD                                                     -1.0
99QCB5    = N400AD*(N400B-N400C)
99QCB6    = N400BD*(N400C-N400A)
99QCB7    = N400CD*(N400A-N400B)
99QACCB1  = ((QCB5+QCB6+QCB7)/SQRT(3.0))/1000000.
99PACCB1  = (N400A*N400AD+N400B*N400BD+N400C*N400CD)/1000000.
C 33PACCB1
C 33QACCB1
C
C /// TACS OUTPUT VARIABLES ///
C 33PPIG  QQIG  VIG
C /// TACS INITIAL CONDITIONS ///
77VIG         1.00478
77PPIG       .5000
77QQIG       -.232
77PIGEN      500000.
77QIGEN      -232000.
77PACCB      0.0
77QACCB      6.25
BLANK card ends TACS data
$VINTAGE, 1
C Bus1->Bus2->Bus3->Bus4-><---------R(ohm)<----------L(mH)<---------C(mmF)
C *** XS *** ( j0.012(pu) : 0.1663869437mH )
  N100A N200A                             .1663869437                          
  N100B N200B N100A N200A 
  N100C N200C N100A N200A          
C *** XT *** ( j0.075(pu) : 1.039918398mH )
  N200A N250A                             1.039918398
  N200B N250B N200A N250A   
  N200C N250C N200A N250A
C *** ZL *** ( 0.2+j0.312(pu) : 0.8712ohm,4.326060536mH )
  N300A N400A             0.871200000     4.326060536
  N300B N400B N300A N400A
  N300C N400C N300A N400A
C ***OUTSIDE LOAD*** ACCB POWER FLOW P=250W 
  N300A                   174.2211826
  N300B       N300A 
  N300C       N300A 
C ***INSIDE LOAD*** 
  N400A N400AD            176.7332792                   
  N400B N400BDN400A N400AD                   
  N400C N400CDN400A N400AD              
  N400ADN400A                                             16.56943663
  N400BDN400B N400ADN400A       
  N400CDN400C N400ADN400A
$VINTAGE, 0
BLANK card terminating branch cards
  N250A N300A       -1.0   8.10
  N250B N300B       -1.0   8.10
  N250C N300C       -1.0   8.10
  IG1A  N400A                                         MEASURING                1
  IG1B  N400B                                         MEASURING                1
  IG1C  N400C                                         MEASURING                1
  N400AD                                              MEASURING
  N400BD                                              MEASURING
  N400CD                                              MEASURING
BLANK card ending switch cards
C <BUS----<VOLT-----<FREQ-----<ANGLE----(1.0pu:5388.87743v)
14N100A   5388.87743   50.0      0.0                         -1.0
14N100B   5388.87743   50.0   -120.0                         -1.0
14N100C   5388.87743   50.0   -240.0                         -1.0
C CLASS1
C |BUS |  |  SLIP  ||   TM0  |
C | A6 |  |  E10.6 ||  E10.6 |
56IG1A    -0.785129
56IG1B
56IG1C
C CLASS2
C TY  <NP><  RMVA  ><  RSKV  ><  FREQ  >
 0       1  0.625    6.6       50.0
C   Rs   ||   Lsl  ||   Rr   ||   Lrl  ||  Msru  ||  Msrs  ||  Flxs  |
C  E10.6 ||  E10.6 ||  E10.6 ||  E10.6 ||  E10.6 ||  E10.6 ||  E10.6 |
0.0113     0.0903    0.0093    0.114     4.3                                    
C CLASS3
C         |    M   ||    D   ||  EMSOM | |NM|P|E|M|
C         |  E10.6 ||  E10.6 ||  E10.6 | |I4|I2I2I2
           1.12        0.0                    1 1 1
C CLASS4
C   T    ||   TM   |    |TBUS|
C  E10.6 ||  E10.6 |    | A6 |
C 0.1      1.1          TM
  0.1      1.2          
  0.5      1.5
            9999  { Special terminator for any Class-4 data (here, 2 cards)
C CLASS5
C | BUS|N|
C | A4 |I2
C 73PGEN   1
  FINISH     { Key word that ends data for this particular (the one and only) IM
BLANK card ending all source cards
C     Total network loss  P-loss  by summing injections =   7.668433002012E+01
C Output for steady-state phasor switch currents.
C  Node-K   Node-M        I-real            I-imag           I-magn        Degrees        Power            Reactive
C  N250A    N300A     9.48674141E-03  -7.08165989E-01   7.08229529E-01   -89.2325    2.55614433E+01    1.90801481E+03
C  N250B    N300B    -6.18033107E-01   3.45867235E-01   7.08229529E-01   150.7675    2.55614433E+01    1.90801481E+03
C  N250C    N300C     6.08546366E-01   3.62298754E-01   7.08229529E-01    30.7675    2.55614433E+01    1.90801481E+03
C  IG1A     N400A     6.13353129E+01   2.91346959E+01   6.79032482E+01    25.4080    1.66673707E+05   -7.75685834E+04
C  IG1B     N400B    -5.43626967E+00  -6.76852871E+01   6.79032482E+01   -94.5920    1.66673707E+05   -7.75685834E+04
C  IG1C     N400C    -5.58990432E+01   3.85505912E+01   6.79032482E+01   145.4080    1.66673707E+05   -7.75685834E+04
C  N400AD             3.04150988E+01   2.84265505E+01   4.16310823E+01    43.0644    0.00000000E+00    0.00000000E+00
C  N400BD             9.41056550E+00  -4.05535235E+01   4.16310823E+01   -76.9356    0.00000000E+00    0.00000000E+00
C  N400CD            -3.98256643E+01   1.21269730E+01   4.16310823E+01   163.0644    0.00000000E+00    0.00000000E+00
C
C Column headings for the  19   EMTP output variables follow.  These are divided among the 5 possible classes as follows ....
C  Next   3     output variables are branch currents (flowing from the upper node to the lower node);
C  Next   12     output variables belong to IM  (with "IM"  an internally-added upper name of pair).
C  Next   4     output variables belong to TACS (with "TACS" an internally-added upper name of pair).
C   Step      Time      IG1A       IG1B       IG1C       IM-1       IM-1       IM-1       IM-1       IM-1       IM-1       IM-1
C                       N400A      N400B      N400C      P          Q          ISA        ISB        ISC        IRA        IRB
C
C                       IM-1       IM-1       IM-1       IM-1       IM-1       TACS       TACS       TACS       TACS
C                       IRC        WR         ANG        TQ         TM         VIG        PPIG       QQIG       TM
C ***      Phasor I(0) =  9.4867414E-03                     Switch  "N250A "  to  "N300A "  closed in the steady-state.
C ***      Phasor I(0) = -6.1803311E-01                     Switch  "N250B "  to  "N300B "  closed in the steady-state.
C ***      Phasor I(0) =  6.0854637E-01                     Switch  "N250C "  to  "N300C "  closed in the steady-state.
C ***      Phasor I(0) =  6.1335313E+01                     Switch  "IG1A  "  to  "N400A "  closed in the steady-state.
C ***      Phasor I(0) = -5.4362697E+00                     Switch  "IG1B  "  to  "N400B "  closed in the steady-state.
C ***      Phasor I(0) = -5.5899043E+01                     Switch  "IG1C  "  to  "N400C "  closed in the steady-state.
C ***      Phasor I(0) =  3.0415099E+01                     Switch  "N400AD"  to  "      "  closed in the steady-state.
C ***      Phasor I(0) =  9.4105655E+00                     Switch  "N400BD"  to  "      "  closed in the steady-state.
C ***      Phasor I(0) = -3.9825664E+01                     Switch  "N400CD"  to  "      "  closed in the steady-state.
C      0       0.0  61.3353129 -5.4362697 -55.899043 500021.122 -232705.75 61.3353129 -5.4362697 -55.899043 -11.518226 60.1820406