BEGIN NEW DATA CASE
C     BENCHMARK DCN-29                                                           
C     The first 11 subcases were provided by Prof. Aki Ametani on 
C     Feb. 28, 2000 for testing of "CABLE PARAMETERS" on 400 KV 
C     XLPE cables using  IYG  to represent the semi-conducting layer.  
C     The second 4 subcases were provided by Prof. Aki Ametani in May,
C     2000 for testing of impedance and admittance calculation for
C     pipe type SC cables using "CABLE PARAMETERS".
C     The last 3 subcases were provided by Prof. Mustafa Kizilcay: each
C     is a case of Pipe type cable with a core semiconducting layer.
C     Prof. Akihiro Ametani had to modify the code of CP to handle data
C     with core admittance only (i.e., no input for sheath admittance).
C     The code changes were sent to BPA on November 21, 2001
C       1st of 32 subcases of dcn29.dat
CABLE PARAMETERS
C                  P  Pt  Ze  ZC  Zs  ??  Zt  Yt Zph  Ti  Tv Tot  Re  Im Mag Ang
MATRIX OUTPUTS     1   1   1   3   1   1   1   1   1   1   1   1   0   0   1   1
C      22 December 2003,  optional preceding definition of KZFL27(16) is added.
C      This integer vector controls which matrices are to be outputed (to either
C      LUNIT6 or separate disk files, or both),  and what coordinates are to be
C      used (e.g., a COMPLEX matrix, a matrix of real parts, a matrix of
C      imaginary parts, a matrix of magnitudes, or a matrix of angles). 
C  Index   Cols.  Symbol   Labeling of matrix in the LUNIT6 file
C   ---------------------------------------------------------------------- 
C     1    17-20    P      Complex potential coefficient
C     2    21-24    Pt     Transposed potential coefficient
C     3    25-28    Ze     Earth impedance ZE, in ohm/m
C     4    29-32    Zc     Conductor internal impedance ZC, in ohm/m
C     5    33-36    Zs     Space impedance ZS, in ohm/m
C     6    37-40           Presently unused (reserved for later use)
C     7    41-44    Zt     Total impedance [Zc], in ohm/m
C     8    45-48    Yt     Total admittance [Yc], in mho/m
C     9    49-52   Zph     Characteristic impedance matrix [Zc] in phase variables, in [ohm]
C    10    53-56    Ti     The current transformation matrix [Ti] follows.  ...
C    11    57-60    Tv     Voltage transformation matrix [Tv].  ...
C        Value 0 requests neither output 
C        Value 1 requests output just to LUNIT6 
C        Value 2 requests output just to the dedicated disk file 
C        Value 3 requests both 
C   ----------------------------------------------------------------------
C    12    61-64   Comp    Complex matrix, with each cell a complex pair
C    13    65-68   Real    Only the real part of the complex matrix
C    14    69-72   Imag    Only the imaginary part of the complex matrix
C    15    73-76   Mag     Only the magnitudes of the complex elements
C    16    77-80   Angle   Only the angles in degrees of the complex elements
C        Note: blank cols. 26-30 below is needed to preserve preceding requests.
C              If not blank KZFLAG, MATRIX OUTPUTS requests will be over-written
C CASE 1 : NPP=0 for Mustafa 400kV XLPE cable
    3    0    1    0    1         0    0    0    0    2
C   1    0    0 1000.     .0000    A
 1.500     1.800     1.810     .6000E-06 1.000     1.000     1.000    
 1.227     209.3    
    2
 .0000     .2550E-01 .6050E-01 .6200E-01 .6700E-01
 .2300E-07 1.000     1.000     2.400     .3300E-07 1.000     1.000     2.400    
 .1000E-11 .0000     .0000     .0000    
    50.0000        7000.00                1000.          2
C            Conductor internal impedance ZC, in ohm/m
C 2.19370E-04  2.93876E-05
C 8.63256E-03  7.78018E-04  Core 1
C           Total impedance [Zc], in ohm/m
C 2.87787E-04  9.78052E-05
C 2.63165E-02  1.84620E-02  Core 1
C           Total admittance [Yc], in mho/m
C 1.00000E-12 -1.00000E-12
C 6.79707E-06 -6.79707E-06  Core 1
C Characteristic impedance matrix  [Zc]  in phase variables,  in [ohm]:
C 157.8968  123.8861
C -.745143  -.354381
C Voltage transformation matrix [Tv].  This gives the mapping from modal to ph..
C      1.0  .9988989
C -.52E-18  -.001736
C            Modal components
C Mode  Attenuation  Velocity      Impedance (Ohm/m)          Admittance (S/m)  
C No.       (db/km) (m/mic.s)       Real      Imag.          Real        Imag.  
C   1  2.98701E-02    190.70  8.18980E-05  7.92568E-03  1.30794E-07  6.71127E-06
C   2  5.03023E-03    295.43  1.42268E-04  1.84320E-02  7.40114E-11  1.20247E-06
BLANK CARD ENDING FREQUENCY CARD
C BLANK CARD ENDING CABLE PARAMETERS
C BEGIN NEW DATA CASE
C     2nd of 32 subcases of dcn29.dat
C CABLE CONSTANTS  -- Remove this extra request, which is old & no longer needed
C CABLE PARAMETERS
C    12 January, 2004,  note about preceding.  Remove exit and re-entry into CP  
C    to test stacked data subcases within CP.  But we also must be able to read
C    optional request cards (English text) at this point, so add copy of what
C    was used in the preceding subcase.  Also, add a BRANCH request:
C                  P  Pt  Ze  ZC  Zs  ??  Zt  Yt Zph  Ti  Tv Tot  Re  Im Mag Ang
MATRIX OUTPUTS     1   1   1   3   1   1   1   1   1   1   1   1   0   0   1   1
BRANCH    { No names are needed, since no branch cards are to be punched
    3    0    1    0    1    1    0    0    0    0    2    
 1.500     1.800     1.810     .6000E-06 1.000     1.000     1.000    
 1.227     209.3    
    2
 .0000     .2550E-01 .6050E-01 .6200E-01 .6700E-01
 .2300E-07 1.000     1.000     2.400     .3300E-07 1.000     1.000     2.400    
 .1000E-11 .0000     .1000E-14 .0000    
    50.0000        7000.00        
C           Total impedance [Zc], in ohm/m
C 2.87787E-04  9.78052E-05
C 2.63165E-02  1.84620E-02  Core 1
C           Total admittance [Yc], in mho/m
C 1.00000E-12 -1.00000E-12
C 6.79707E-06 -6.79707E-06  Core 1
C Characteristic impedance matrix  [Zc]  in phase variables,  in [ohm]:
C 157.8968  123.8861
C -.747624  -.356858
C Voltage transformation matrix [Tv].  This gives the mapping from modal to ph..
C      1.0  .9988992
C .112E-17  -.001736
C            Modal components
C Mode  Attenuation  Velocity      Impedance (Ohm/m)          Admittance (S/m)   
C No.       (db/km) (m/mic.s)       Real      Imag.          Real        Imag.   
C   1  2.98701E-02    190.70  8.18923E-05  7.92567E-03  1.30799E-07  6.71128E-06 
C   2  4.97646E-03    295.43  1.41869E-04  1.84320E-02  0.00000E+00  1.20247E-06 
BLANK CARD ENDING FREQUENCY CARD
BLANK CARD ENDING CABLE PARAMETERS
BEGIN NEW DATA CASE
C     3rd of 32 subcases of dcn29.dat
C CABLE CONSTANTS  -- Remove this extra request, which is old & no longer needed
CABLE PARAMETERS
C CASE 2 : NPP=1, NG=1 in CASE 1 gives the same result as CASE 1
    3   -1    1    0    1    1    0    1    1    0    2    
 1.500     1.800     1.810     .6000E-06 1.000     1.000     1.000    
 1.227     209.3    
    2
 .0000     .2550E-01 .6050E-01 .6200E-01 .6700E-01
 .2300E-07 1.000     1.000     2.400     .3300E-07 1.000     1.000     2.400    
 .1000E-11 .0000     .0000     .0000    
 .0000     .0000    
 5.000     .0000    
    50.0000        7000.00        
C            Earth impedance ZE, in ohm/m
C 6.34866E-03  6.34866E-03  6.34866E-03
C 3.12516E-02  3.12516E-02  3.12516E-02  Core 1
C            Conductor internal impedance ZC, in ohm/m
C 2.19370E-04  2.93876E-05  0.00000E+00
C 8.63256E-03  7.78018E-04  0.00000E+00  Core 1
C           Total impedance [Zc], in ohm/m
C 2.87787E-04  9.78052E-05
C 2.63165E-02  1.84620E-02  Core 1
C           Total admittance [Yc], in mho/m
C 1.00000E-12 -1.00000E-12
C 6.79707E-06 -6.79707E-06  Core 1
C Characteristic impedance matrix  [Zc]  in phase variables,  in [ohm]:
C 157.8968  123.8861
C -.745143  -.354381
C Voltage transformation matrix [Tv].  This gives the mapping from modal to ph..
C      1.0  .9988989
C .667E-18  -.001736
C            Modal components
C Mode  Attenuation  Velocity      Impedance (Ohm/m)          Admittance (S/m)  
C No.       (db/km) (m/mic.s)       Real      Imag.          Real        Imag.  
C   1  2.98701E-02    190.70  8.18980E-05  7.92568E-03  1.30794E-07  6.71127E-06
C   2  5.03023E-03    295.43  1.42268E-04  1.84320E-02  7.40114E-11  1.20247E-06
BLANK CARD ENDING FREQUENCY CARD
BLANK CARD ENDING CABLE PARAMETERS
BEGIN NEW DATA CASE
C     4th of 32 subcases of dcn29.dat
C CABLE CONSTANTS  -- Remove this extra request, which is old & no longer needed
CABLE PARAMETERS
C CASE 3 : G for sheath and pipe added to CASE 2, no difference
    3   -1    1    0    1    1    0    1    1    0    2    
 1.500     1.800     1.810     .6000E-06 1.000     1.000     1.000    
 1.227     209.3    
    2
 .0000     .2550E-01 .6050E-01 .6200E-01 .6700E-01
 .2300E-07 1.000     1.000     2.400     .3300E-07 1.000     1.000     2.400    
 .1000E-11 .0000     .1000E-14 .0000    
 .1000E-09 .0000    
 5.000     .0000    
    50.0000        7000.00     
C           Total impedance [Zc], in ohm/m
C 2.87787E-04  9.78052E-05
C 2.63165E-02  1.84620E-02  Core 1
C           Total admittance [Yc], in mho/m
C 1.00000E-12 -1.00000E-12
C 6.79707E-06 -6.79707E-06  Core 1
C Characteristic impedance matrix  [Zc]  in phase variables,  in [ohm]:
C 157.8968  123.8861
C -.747624  -.356858
C Voltage transformation matrix [Tv].  This gives the mapping from modal to ph..
C      1.0  .9988992
C .869E-18  -.001736
C            Modal components
C Mode  Attenuation  Velocity      Impedance (Ohm/m)          Admittance (S/m)    Charact. imp. (Ohm)     Charact. Admit. (S)
C No.       (db/km) (m/mic.s)       Real      Imag.          Real        Imag.       Real      Imag.          Real        Imag.
C   1  2.98701E-02    190.70  8.18923E-05  7.92567E-03  1.30799E-07  6.71128E-06     34.362      .157  2.91011E-02 -1.33208E-04
C   2  4.97646E-03    295.43  1.41869E-04  1.84320E-02  0.00000E+00  1.20247E-06    123.809     -.476  8.07684E-03  3.10829E-05
BLANK CARD ENDING FREQUENCY CARD
BLANK CARD ENDING CABLE PARAMETERS
BEGIN NEW DATA CASE
C     5th of 32 subcases of dcn29.dat
C CABLE CONSTANTS  -- Remove this extra request, which is old & no longer needed
CABLE PARAMETERS
C CASE 4 : NG=0 in CASE 3, modes 2 and 3 same as modes1 and 2 in CASE 3
    3   -1    1    0    1    1    0    1    0    0    2    
 1.500     1.800     1.810     .6000E-06 1.000     1.000     1.000    
 1.227     209.3    
    2
 .0000     .2550E-01 .6050E-01 .6200E-01 .6700E-01
 .2300E-07 1.000     1.000     2.400     .3300E-07 1.000     1.000     2.400    
 .1000E-11 .0000     .1000E-14 .0000    
 .1000E-09 .0000    
 5.000     .0000    
    50.0000        7000.00     
C           Total impedance [Zc], in ohm/m
C 6.64784E-03  6.45786E-03  6.36006E-03
C 5.76283E-02  4.97737E-02  3.13118E-02  Core 1
C           Total admittance [Yc], in mho/m
C 1.00000E-12 -1.00000E-12 -7.82293E-29
C 6.79707E-06 -6.79707E-06  0.00000E+00  Core 1
C Characteristic impedance matrix  [Zc]  in phase variables,  in [ohm]:
C 166.3597   132.349  8.462883
C -1.59843  -1.20766  -.850804
C Voltage transformation matrix [Tv].  This gives the mapping from modal to ph..
C      1.0       1.0  .9988992
C -.33E-16  .485E-18  -.001736
C            Modal components
C Mode  Attenuation  Velocity      Impedance (Ohm/m)          Admittance (S/m)    
C No.       (db/km) (m/mic.s)       Real      Imag.          Real        Imag.    
C   1  3.26383E+00     11.77  6.36006E-03  3.13118E-02  1.00000E-10  4.41654E-04  
C   2  2.98701E-02    190.70  8.18923E-05  7.92567E-03  1.30799E-07  6.71128E-06  
BLANK CARD ENDING FREQUENCY CARD
BLANK CARD ENDING CABLE PARAMETERS
BEGIN NEW DATA CASE
C     6th of 32 subcases of dcn29.dat
C CABLE CONSTANTS  -- Remove this extra request, which is old & no longer needed
CABLE PARAMETERS
C CASE 4' : SC cable (pipe deleted in CASE 4), same mode 2 (coaxial mode)
    2   -1    1    0    1    1    0    0    0    0    2  
    2
 .0000     .2550E-01 .6050E-01 .6200E-01 .6700E-01
 .2300E-07 1.000     1.000     2.400     .3300E-07 1.000     1.000     2.400    
 .1000E-11 .0000     .1000E-14 .0000    
 5.000     .0000    
    50.0000        7000.00        
C           Total impedance [Zc], in ohm/m
C 6.59922E-03  6.40924E-03
C 6.88745E-02  6.10200E-02  Core 1
C           Total admittance [Yc], in mho/m
C 1.00000E-12 -1.00000E-12
C 6.79707E-06 -6.79707E-06  Core 1
C Characteristic impedance matrix  [Zc]  in phase variables,  in [ohm]:
C 62.37636  28.43276
C -1.96318  -1.48045
C Voltage transformation matrix [Tv].  This gives the mapping from modal to ph..
C 1.000423       1.0
C .7666E-3       0.0
C            Modal components
C Mode  Attenuation  Velocity      Impedance (Ohm/m)          Admittance (S/m)   
C No.       (db/km) (m/mic.s)       Real      Imag.          Real        Imag.   
C   1  9.86029E-01     20.44  6.45273E-03  6.09895E-02  0.00000E+00  7.57164E-05 
C   2  2.98882E-02    190.70  2.33501E-04  7.82353E-03  0.00000E+00  6.79758E-06 
BLANK CARD ENDING FREQUENCY CARD
BLANK CARD ENDING CABLE PARAMETERS
BEGIN NEW DATA CASE
C     7th of 32 subcases of dcn29.dat
C CABLE CONSTANTS  -- Remove this extra request, which is old & no longer needed
CABLE PARAMETERS
C CASE 4'' : Armor added to CASE 4', modes 1 and 3 nearly same as modes 1 and 2 inCASE 4'
C  Results of this case changed on March 2, 2001 after implementing the 
C  correction that Prof. Ametani made on February 17, 2001.
C  This correction only affects cables having 3 layers of conductors: core,  
C  sheath and armor.  
    2   -1    1    0    1    1    0    0    0    0    2    
    3
 .0000     .2550E-01 .6050E-01 .6200E-01 .6700E-01 .6800E-01 .7300E-01
 .2300E-07 1.000     1.000     2.400     .3300E-07 1.000     1.000     2.400    
 .3300E-07 1.000     1.000     2.400    
 .1000E-11 .0000     .1000E-14 .0000     .1000E-09 .0000    
 5.000     .0000    
    50.0000        7000.00      
C            Earth impedance ZE, in ohm/m
C 6.37984E-03  6.37984E-03  6.37984E-03
C 5.94875E-02  5.94875E-02  5.94875E-02  Core 1
C            Conductor internal impedance ZC, in ohm/m
C 2.37056E-04  4.70742E-05  8.80821E-06
C 9.38405E-03  1.52950E-03  6.87487E-04  Core 1
C           Total impedance [Zc], in ohm/m
C 6.61689E-03  6.42691E-03  6.38864E-03
C 6.88716E-02  6.10170E-02  6.01750E-02  Core 1
C           Total admittance [Yc], in mho/m
C 1.00000E-12 -1.00000E-12 -7.82293E-29
C 6.79707E-06 -6.79707E-06 -2.52554E-21  Core 1
C Characteristic impedance matrix  [Zc]  in phase variables,  in [ohm]:
C 64.41276  30.36306  27.00465
C -.353587  -1.59075  -1.41604
C Voltage transformation matrix [Tv].  This gives the mapping from modal to ph..
C 1.000218  .8744759       1.0
C .0012639  .3076899       0.0
C            Modal components
C Mode  Attenuation  Velocity      Impedance (Ohm/m)          Admittance (S/m)   
C No.       (db/km) (m/mic.s)       Real      Imag.          Real        Imag.   
C   1  1.03955E+00     19.68  6.46233E-03  6.01540E-02  5.81320E-11  8.27664E-05 
C   2  2.07711E-01    179.08  1.52485E-04  7.95151E-04  3.49904E-07  7.52099E-05 
BLANK CARD ENDING FREQUENCY CARD
BLANK CARD ENDING CABLE PARAMETERS
BEGIN NEW DATA CASE
C     8th of 32 subcases of dcn29.dat
C CABLE CONSTANTS  -- Remove this extra request, which is old & no longer needed
CABLE PARAMETERS
C CASE 5 : Sheath deleted in CASE 4, same mode 1
    3   -1    1    1    1    0    0    1    0    0    2    
 1.500     1.800     1.810     .6000E-06 1.000     1.000     1.000    
 1.227     209.3    
    1
 .0000     .2550E-01 .6050E-01
 .2300E-07 1.000     1.000     2.400    
 .1000E-11 .0000    
 .1000E-09 .0000    
 5.000     .0000    
    50.0000        7000.00        
C           Total impedance [Zc], in ohm/m
C 6.58868E-03  6.36006E-03
C 5.76505E-02  3.13118E-02  Core 1
C           Total admittance [Yc], in mho/m
C 1.00000E-12 -1.00000E-12
C 9.92816E-07 -9.92816E-07  Core 1
C Characteristic impedance matrix  [Zc]  in phase variables,  in [ohm]:
C 171.3428  8.462883
C -1.55761  -.850804
C Voltage transformation matrix [Tv].  This gives the mapping from modal to ph..
C      1.0       1.0
C -.15E-16       0.0
C            Modal components
C Mode  Attenuation  Velocity      Impedance (Ohm/m)          Admittance (S/m)  
C No.       (db/km) (m/mic.s)       Real      Imag.          Real        Imag.  
C   1  3.26383E+00     11.77  6.36006E-03  3.13118E-02  1.00000E-10  4.41654E-04
C   2  6.09657E-03    271.98  2.28622E-04  2.63388E-02  1.00000E-12  9.92816E-07
BLANK CARD ENDING FREQUENCY CARD
BLANK CARD ENDING CABLE PARAMETERS
BEGIN NEW DATA CASE
C     9th of 32 subcases of dcn29.dat
C CABLE CONSTANTS  -- Remove this extra request, which is old & no longer needed
CABLE PARAMETERS
    2    1    1    1    1    0    0    0    0    0    2    0
    2
 .8000E-02 .1000E-01 .2700E-01 .3000E-01 .3100E-01
 .3000E-07 1.000     1.000     1.063     .3000E-07 1.000     1.000     1.100    
 .1000E-14 .0000     .5000E-04 .0000    
 .9000     .0000    
    .100000E-07    .100000E+08    
C           Total impedance [Zc], in ohm/m
C 2.96434E-02  5.88727E-03
C 6.39622E+01  5.14569E+01  Core 1
C           Total admittance [Yc], in mho/m
C 1.00000E-15 -1.00000E-15
C 3.74095E-03 -3.74095E-03  Core 1
C Characteristic impedance matrix  [Zc]  in phase variables,  in [ohm]:
C 302.9185  245.1014
C 7.097006  7.151923
C Voltage transformation matrix [Tv].  This gives the mapping from modal to ph..
C      1.0       1.0
C      0.0  -.97E-15
C            Modal components
C Mode  Attenuation  Velocity      Impedance (Ohm/m)          Admittance (S/m)  
C No.       (db/km) (m/mic.s)       Real      Imag.          Real        Imag.  
C   1  1.78445E+00    290.50  2.37561E-02  1.25053E+01  0.00000E+00  3.74095E-03
C   2  5.33727E+01    299.54  5.88727E-03  5.14569E+01  5.00000E-05  8.54359E-04
BLANK CARD ENDING FREQUENCY CARD
BLANK CARD ENDING CABLE PARAMETERS
BEGIN NEW DATA CASE
C    10th of 32 subcases of dcn29.dat
C CABLE CONSTANTS  -- Remove this extra request, which is old & no longer needed
CABLE PARAMETERS
C  Sheath deleted from the previous case
    2    1    1    0    1    1    0    0    0    0    2 
    1
 .8000E-02 .1000E-01 .2700E-01
 .3000E-07 1.000     1.000     1.063    
 .1000E-14 .0000    
 .9000     .0000    
    .100000E-07    .100000E+08  
C           Total impedance [Zc], in ohm/m
C 1.74555E-02
C 6.52741E+01  Core 1
C           Total admittance [Yc], in mho/m
C 1.00000E-15
C 6.80840E-04  Core 1
C Characteristic impedance matrix  [Zc]  in phase variables,  in [ohm]:
C 309.6335
C -.041401
C ..The transpose of this is the inverse of the voltage transformation matrix.
C      1.0
C      0.0
C Voltage transformation matrix [Tv].  This gives the mapping from modal to ph..
C      1.0
C      0.0
C            Modal components
C Mode  Attenuation  Velocity      Impedance (Ohm/m)          Admittance (S/m)  
C No.       (db/km) (m/mic.s)       Real      Imag.          Real        Imag.  
C   1  2.44832E-01    298.05  1.74555E-02  6.52741E+01  0.00000E+00  6.80840E-04
BLANK CARD ENDING FREQUENCY CARD
BLANK CARD ENDING CABLE PARAMETERS
BEGIN NEW DATA CASE
C    11th of 32 subcases of dcn29.dat
C CABLE CONSTANTS  -- Remove this extra request, which is old & no longer needed
CABLE PARAMETERS
    2    1    1    0    1    1    0    0    0    0    1 
C   1    0    0 2.000     .0000    A
    2
 .8000E-02 .1000E-01 .2700E-01 .3000E-01 .3100E-01
 .3000E-07 1.000     1.000     1.063     .3000E-07 1.000     1.000     1.100    
 .0000     .1000E-14 .0000     .5500E-10
 .9000     .0000    
    .100000E-07    .100000E+08              2.0          2
C           Total impedance [Zc], in ohm/m
C 2.96434E-02  5.88727E-03
C 6.39622E+01  5.14569E+01  Core 1
C           Total admittance [Yc], in mho/m
C 0.00000E+00  0.00000E+00
C 3.74102E-03 -3.74102E-03  Core 1
C Characteristic impedance matrix  [Zc]  in phase variables,  in [ohm]:
C 167.0808  109.2642
C -.061167  -.006251
C ... The transpose of this is the inverse of the voltage transformation matrix.
C      0.0       1.0
C      0.0  -.67E-17
C Voltage transformation matrix [Tv].  This gives the mapping from modal to ph..
C      1.0       1.0
C -.13E-18       0.0
C            Modal components
C Mode  Attenuation  Velocity      Impedance (Ohm/m)          Admittance (S/m)  
C No.       (db/km) (m/mic.s)       Real      Imag.          Real        Imag.  
C   1  2.34002E-01    133.42  5.88727E-03  5.14569E+01  0.00000E+00  4.31011E-03
C   2  1.78446E+00    290.49  2.37561E-02  1.25053E+01  0.00000E+00  3.74102E-03
BLANK CARD ENDING FREQUENCY CARD
BLANK CARD ENDING CABLE PARAMETERS
BEGIN NEW DATA CASE
C    12th of 32 subcases of dcn29.dat
C  1st of four new test cases provided by Prof. Aki Ametani in May, 2000
C  for testing of Z and Y calculation for pipe type SC cables.
C  Results of this case changed on March 2, 2001 after implementing the 
C  correction that Prof. Ametani made on February 17, 2001.
C  This correction only affects cables having 3 layers of conductors: core,  
C  sheath and armor.  
CABLE PARAMETERS
C   3    0    1    0    0    0    0    0    0    0    0    0
C                   KMODE  --- 18 October 2002, Tsu-huei Liu activates modal out  
    3    0    1    0    1    0    0    0    0    0    0    0
C                   Note about KMODE.  DC-27 and 28 were changed comparably. 
 1.500     1.510     1.800     .6000E-06 1.000     1.000     1.000    
 1.227     209.3    
    3
 .0000     .2550E-01 .2650E-01 .2850E-01 .6050E-01 .6200E-01 .6700E-01
 .2300E-07 1.000     1.000     2.400     .5000E-04 1.000     1.000     2.400    
 .3300E-07 1.000     1.000     2.400    
    50.0000        7000.00        0    0    0
C           Total impedance [Zc], in ohm/m
C 2.87997E-04  1.27681E-04  9.78052E-05
C 2.63165E-02  2.54931E-02  1.84620E-02  Core 1
C           Total admittance [Yc], in mho/m
C 0.00000E+00  0.00000E+00  0.00000E+00
C 1.52664E-04 -1.52664E-04  0.00000E+00  Core 1
C Characteristic impedance matrix  [Zc]  in phase variables,  in [ohm]:
C 156.4303  154.7627   123.884
C  -.73725  -.757094  -.362581
C Voltage transformation matrix [Tv].  This gives the mapping from modal to ph..
C  -.00105  .9999578  .9990462
C  -.00305  .0091876  -.001508
C            Modal components
C Mode  Attenuation  Velocity      Impedance (Ohm/m)          Admittance (S/m)  
C No.       (db/km) (m/mic.s)       Real      Imag.          Real        Imag.  
C   1  2.95420E+01     12.87  1.44544E-01  6.53992E-04  0.00000E+00  1.60785E-04
C   2  3.14054E-02    182.51  2.37593E-04  7.91624E-03  0.00000E+00  7.33482E-06
BLANK card ending frequency cards within  CABLE PARAMETERS
BLANK card ending  CABLE CONSTANTS  data subcases
BEGIN NEW DATA CASE
C    13th of 32 subcases of dcn29.dat
C  2nd of four new test cases provided by Prof. Aki Ametani in May, 2000
C  for testing of Z and Y calculation for pipe type SC cables.
C  Results of this case changed on March 2, 2001 after implementing the 
C  correction that Prof. Ametani made on February 17, 2001.
C  This correction only affects cables having 3 layers of conductors: core,  
C  sheath and armor.  
CABLE PARAMETERS
C   3   -1    1    0    0    1    1    0    0    0    0    0
    3   -1    1    0    1    1    1    0    0    0    0    0
 1.500     1.650     1.780     .2000E-02 1.000     1.000     1.000    
 1.145    -30.15    
    3
 .0000     .2000E-01 .4200E-01 .4403E-01 .4503E-01 .4583E-01 .4983E-01
 .3746E-07 1.000     1.000     2.500     .2803E-07 1.000     1.000     2.500    
 .7265E-06 1.000     1.000     8.000    
    100.000        50.0000        0    0    0
C            Conductor internal impedance ZC, in ohm/m
C 3.23928E-05  4.62469E-09  0.00000E+00
C 7.23915E-05  9.23450E-06  5.80721E-06  Core 1
C           Total impedance [Zc], in ohm/m
C 6.88851E-05  3.64969E-05  3.64923E-05
C 3.34994E-04  2.71837E-04  2.68410E-04  Core 1
C           Total admittance [Yc], in mho/m
C 0.00000E+00  0.00000E+00  0.00000E+00
C 5.88913E-08 -5.88913E-08 -2.50068E-22  Core 1
C Characteristic impedance matrix  [Zc]  in phase variables,  in [ohm]:
C 233.0843  199.6486  198.9199
C -22.5078  -16.4384   -16.401
C Voltage transformation matrix [Tv].  This gives the mapping from modal to ph..
C .4278E-4  -.688049  .9999471
C -.772E-3   -.38441   -.01029
C            Modal components
C Mode  Attenuation  Velocity      Impedance (Ohm/m)          Admittance (S/m)  
C No.       (db/km) (m/mic.s)       Real      Imag.          Real        Imag.  
C   1  4.87705E-01      5.59  3.13169E-03  2.65190E-06  0.00000E+00  2.01513E-06
C   2  9.92211E-03    141.71  3.17026E-05  2.25959E-05  0.00000E+00  1.59766E-07
BLANK card ending frequency cards within  CABLE PARAMETERS
BLANK card ending  CABLE CONSTANTS  data subcases
BEGIN NEW DATA CASE
C    14th of 32 subcases of dcn29.dat
C  3rd of four new test cases provided by Prof. Aki Ametani in May, 2000
C  for testing of Z and Y calculation for pipe type SC cables.
C  Results of this case changed on March 2, 2001 after implementing the 
C  correction that Prof. Ametani made on February 17, 2001.
C  This correction only affects cables having 3 layers of conductors: core,  
C  sheath and armor.  
CABLE PARAMETERS
C   3    0    2    0    0    0    0    0    0    0    0    0
    3    0    2    0    1    0    0    0    0    0    0    0
 1.500     1.510     1.800     .6000E-06 1.000     1.000     1.000    
 1.227     209.3     1.470     85.00    
    3    1
 .0000     .2550E-01 .2650E-01 .2850E-01 .6050E-01 .6200E-01 .6700E-01
 .2300E-07 1.000     1.000     2.400     .5000E-04 1.000     1.000     2.400    
 .3300E-07 1.000     1.000     2.400    
 .0000     .1010E-01 .1020E-01
 .2400E-07 1.000     1.000     1.000    
    50.0000        7000.00        0    0    0
C           Total impedance [Zc], in ohm/m
C 2.87997E-04  1.94860E-06  1.27681E-04  9.78052E-05
C 2.63165E-02  2.46787E-05  2.54931E-02  1.84620E-02  Core 1
C           Total admittance [Yc], in mho/m
C 0.00000E+00  0.00000E+00  0.00000E+00  0.00000E+00
C 1.52664E-04 -1.42472E-23 -1.52664E-04 -6.28731E-22  Core 1
C Characteristic impedance matrix  [Zc]  in phase variables,  in [ohm]:
C 156.4303  .1616253  154.7627   123.884
C  -.73725  -.006732  -.757093  -.362581
C Voltage transformation matrix [Tv].  This gives the mapping from modal to ph..
C  -.00105  .9999578  -.296E-3  .9990462
C  -.00305  .0091876  .6651E-3  -.001507
C            Modal components
C Mode  Attenuation  Velocity      Impedance (Ohm/m)          Admittance (S/m) 
C No.       (db/km) (m/mic.s)       Real      Imag.          Real        Imag. 
C   1  2.95420E+01     12.87  1.44544E-01  6.53992E-04  0.00000E+00  1.60785E-04
C   2  3.14054E-02    182.51  2.37593E-04  7.91624E-03  0.00000E+00  7.33482E-06
BLANK card ending frequency cards within  CABLE PARAMETERS
BLANK card ending  CABLE CONSTANTS  data subcases
BEGIN NEW DATA CASE
C    15th of 32 subcases of dcn29.dat
C  4th of four new test cases provided by Prof. Aki Ametani in May, 2000
C  for testing of Z and Y calculation for pipe type SC cables.
C  Results of this case changed on March 2, 2001 after implementing the 
C  correction that Prof. Ametani made on February 17, 2001.
C  This correction only affects cables having 3 layers of conductors: core,  
C  sheath and armor.  
CABLE PARAMETERS
C   3   -1    1    0    0    1    1    1    0    0    0    0
    3   -1    1    0    1    1    1    1    0    0    0    0
 1.500     1.650     1.780     .2000E-02 1.000     1.000     1.000    
 1.145    -30.15    
    3
 .0000     .2000E-01 .4200E-01 .4403E-01 .4503E-01 .4583E-01 .4983E-01
 .3746E-07 1.000     1.000     2.500     .2803E-07 1.000     1.000     2.500    
 .7265E-06 1.000     1.000     8.000    
 40.00     .0000    
    100.000        50.0000        0    0    0
C            Earth impedance ZE, in ohm/m
C 4.64557E-05  4.64557E-05  4.64557E-05  4.64557E-05
C 3.97608E-04  3.97608E-04  3.97608E-04  3.97608E-04  Core 1
C            Conductor internal impedance ZC, in ohm/m
C 3.23928E-05  4.62469E-09  0.00000E+00  0.00000E+00
C 7.23915E-05  9.23450E-06  5.80721E-06  0.00000E+00  Core 1
C           Total impedance [Zc], in ohm/m
C 8.46452E-05  5.22570E-05  5.22524E-05  4.64567E-05
C 6.90129E-04  6.26972E-04  6.23545E-04  4.05272E-04  Core 1
C           Total admittance [Yc], in mho/m
C 0.00000E+00  0.00000E+00  0.00000E+00  0.00000E+00
C 5.88913E-08 -5.88913E-08  0.00000E+00 -5.49524E-26  Core 1
C Characteristic impedance matrix  [Zc]  in phase variables,  in [ohm]:
C 329.9094  295.7853  294.8116  25.57555
C -39.8168  -32.0912    -31.97  8.072659
C Voltage transformation matrix [Tv].  This gives the mapping from modal to ph..
C .6929E-5  .0989196  -.286086       1.0
C -.849E-3  .2522515  .0341845  -.711E-4
C            Modal components
C Mode  Attenuation  Velocity      Impedance (Ohm/m)          Admittance (S/m)   
C No.       (db/km) (m/mic.s)       Real      Imag.          Real        Imag.   
C   1  4.87706E-01      5.59  3.13145E-03  2.65107E-06  0.00000E+00  2.01530E-06 
C   2  9.73010E-02     21.36  1.39867E-03  3.85548E-04  0.00000E+00  2.35598E-07 
BLANK card ending frequency cards within  CABLE PARAMETERS
BLANK card ending  CABLE CONSTANTS  data subcases
BEGIN NEW DATA CASE    
C    16th of 32 subcases of dcn29.dat
C     The 1st of 3 subcases provided by Prof. Mustafa Kizilcay: each
C     is a case of Pipe type cable with a core semiconducting layer.
C     Different IYG options are used in representing the distributed
C     admittance for the core and sheath.