BEGIN NEW DATA CASE
C   1st of 19 subcases that illustrate  POCKET CALCULATOR VARIES PARAMETERS  (the
C   same as introduced at the end of DCNEW-25) without simulation.  The previous
C   illustration involved simulation.  Here,  TMAX < 0  ===>  none.  Although
C   one could save the  .PL4  file,  there is nothing new to illustrate in this
C   usage,  so it will not be done.  Variable  IOPCVP  controls output for the
C   2nd or later pass of loop.  The zero illustrated here minimizes output.  If
C   it is toggled to value 1,  all output of the 1st subcase should be repeated
C   during the 2nd or later pass.  This is useful for debugging.
C   Controls of following request card:   MAXKNT  IOPCVP   { Loop 8 times with
POCKET CALCULATOR VARIES PARAMETERS            8       1   { minimum printout
PRINTED NUMBER WIDTH, 11, 2,  { Request maximum precision (for 8 output columns)
   .0001     -1.     50.     50.
       1       1       1       0       1                       2
$PARAMETER   { This will be serviced by CIMAGE just as any other $-card would b
MHENRY = 1.2 - ( KNT - 1.0 ) * .05    { L =1.2, 1.15, 1.1, etc.
FREQUENCY = 25. * KNT  { Here we vary the frequency for use on source card
BLANK card ends  $PARAMETER  definitions that are processed just b4 branch card
  TRAN                       1.0       1.E+5                                   3
  GEN   TRAN                 1.0MHENRY
BLANK card ending program branch cards.
BLANK card terminating program switch cards (none, for this case)
14GEN            70. FREQUENCY                                     -1.
BLANK card terminating program source cards.
  GEN   TRAN
BLANK card ending program output-variable requests.
  PRINTER PLOT
 19660. 0.0200.         TRAN
BLANK card ending plot cards
BEGIN NEW DATA CASE
C   2nd of 19 subcases that illustrate  PCVP  will superimpose the PCVP loop on
C   top of a normal  FREQUENCY SCAN  loop.  In fact,  the latter controls the
C   loop,  so  MAXKNT  is arbitrary and can be ignored.   By design, the
C   solution to this 2nd subcase is the same as the first.  As for subcase one,
C   the .PL4 file will not be saved,  although it could be.
FREQUENCY SCAN, 25., 25., 200., 0,     { 25 < f < 200 Hz  in  25-Hz increments
C   Controls of following request card:   MAXKNT  IOPCVP   { Ignore MAXKNT value
POCKET CALCULATOR VARIES PARAMETERS            0       1    { since also FS loop
PRINTED NUMBER WIDTH, 11, 2,  { Request maximum precision (for 8 output columns)
   .0001     -1.     50.     50.
       1       1       1       0       1
$PARAMETER   { This will be serviced by CIMAGE just as any other $-card would b
MHENRY = 1.2 - ( KNT - 1.0 ) * .05    { L =1.2, 1.15, 1.1,  ....
BLANK card ends  $PARAMETER  definitions that are processed just b4 branch card
  TRAN                       1.0       1.E+5                                   3
  GEN   TRAN                 1.0MHENRY
BLANK card ending program branch cards.
BLANK card terminating program switch cards (none, for this case)
14GEN            70.       25.                                     -1.
BLANK card terminating program source cards.
  GEN   TRAN
BLANK card ending program output-variable requests.
  PRINTER PLOT
 19660. 0.0200.         TRAN
BLANK card ending plot cards
BEGIN NEW DATA CASE
C   3rd of 19 subcases that illustrate  PCVP  will superimpose the PCVP loop on
C   top of a normal  HARMONIC FREQUENCY SCAN loop.  In fact, the latter controls
C   the loop,  so  MAXKNT  is arbitrary and can be ignored.   By design,
C   solution to this 3rd subcase is the same as the preceding two.  This is an
C   abnormal, special case (normally, HFS data will skip harmonics, and source
C   amplitudes will be varied).
C      27 December 2000,  MODELS  data is added.  Nothing else is changed.  This
C      use of  MODELS  is imagined as an alternative to  $POCKET  as illustrated
C      in the following (4th) subcase.  Automatically,  MODELS  is called at the
C      end of the phasor solution so the user need do nothing more than add his
C      MODELS data in the usual place.  28 December 2000,  add a switch, too, to
C      prove that phasor switch current also can be viewed using MODELS.
POWER FREQUENCY, 25., ! Needed so minimum frequency is recognized as fundamental
HARMONIC FREQUENCY SCAN { Non-negative DELFFS in 25-32 means F in Hz (not log F) 
C   Controls of following request card:   MAXKNT  IOPCVP   { Ignore MAXKNT value
POCKET CALCULATOR VARIES PARAMETERS            0       1   { since also HFS loop
PRINTED NUMBER WIDTH, 11, 2,  { Request maximum precision (for 8 output columns)
   .0001     -1.     50.     50.
       1       1       1       0       1
MODELS
INPUT v_Re_tran  {v(tran)}        -- real part of voltage at node TRAN
      v_Im_tran  {imssv(tran)}    -- imag part of voltage at node TRAN
      i_Re_swit  {i(swit)}        -- real part of current at switch SWIT    
      i_Im_swit  {imssi(swit)}    -- imag part of current at switch SWIT 
MODEL m1 -----------------------------------------------------------------------
 VAR pass, ampl, angle, sum  --  list of all local variables
 INPUT v_Re_1 {dflt: 0}    -- to verify that real part of node voltage and the
       v_Im_1 {dflt: 0}    -- imaginary part of node voltage are accessed correctly
       i_Re_1 {dflt: 0}    -- to verify the    real   part of switch current
       i_Im_1 {dflt: 0}    -- to verify the imaginary part of switch current
 INIT  pass:=0
       sum:=0  ENDINIT
 EXEC
  pass:=pass+1
  ampl:=  sqrt( v_Re_1 **2 +  v_Im_1 ** 2 )  -- Magnitude of the node voltage
  angle:=  atan2( v_Im_1 , v_Re_1  )  -- Angle in radians of the node voltage
  sum:= sum + ampl -- Sum the voltage amplitudes for different harmonics
write('  ************** In MODELS, pass = ', pass, '   freq = ', t )  
write('  Re{i1}, Im{i1} = ', i_Re_1, ', ', i_Im_1 )
write('  Re{v1}, Im{v1} = ', v_Re_1, ', ', v_Im_1 )
write('          Polar  =', ampl, angle )
write('          Sum of amplitudes =', sum )
 ENDEXEC
ENDMODEL
USE m1 as m1
 INPUT v_Re_1 := v_Re_tran
       v_Im_1 := v_Im_tran
       i_Re_1 := i_Re_swit
       i_Im_1 := i_Im_swit
ENDUSE
ENDMODELS
$PARAMETER   { This will be serviced by CIMAGE just as any other $-card would b
MHENRY = 1.2 - ( KNT - 1.0 ) * .05    { L =1.2, 1.15, 1.1,  ....
BLANK card ends  $PARAMETER  definitions that are processed just b4 branch card
  TRAN  SWIT                 1.0       1.E+5                                   3
  GEN   TRAN                 1.0MHENRY
BLANK card ending program branch cards.
  SWIT               -1.       1.0                                             1
BLANK card terminating program switch cards (none, for this case)
14GEN            70.       25.       0.0  { Note comment and no negative T-start
14GEN            70.       50.       0.0  { This is normal HFS source data.  It
14GEN            70.       75.       0.0  { is unusual, however,  because of our
14GEN            70.      100.       0.0  { match preceding subases.   Unusual
14GEN            70.      125.       0.0  { for HFS usage,  the amplitude is not
14GEN            70.      150.       0.0  { varied and all harmonics are present
14GEN            70.      175.       0.0 
14GEN            70.      200.       0.0 
BLANK card ending source cards
BLANK card ending F-dependent series R-L-C branches (none, for this subcase)
  GEN   TRAN
BLANK card ending program output-variable requests.
  CALCOMP PLOT       { Use BOTH rather than DISK to see a bar chart of harmonics 
 19680. 0.0200.         TRAN  SWIT { Units/inch of 5-7 are ingored since bar chart
BLANK card ending plot cards
BEGIN NEW DATA CASE
C   4th of 19 subcases that illustrate  PCVP  comes from Gabor Furst.   As can be
C   read in the January, 1999, newsletter,  this  is  "a semi-realistic HFS file
C   ....  This resistance is varied by the Funk-Hantel formula."   Note harmonic
C   source amplitudes vary (unlike 3rd subcase), and some harmonics are missing.
C      27 December 2000, modify existing case by addition of  SAVE  and  $POCKET
C      to illustrate operation of these new features.  Included is  WRITE(  for
C      output that is part of regular ATP output.
POWER FREQUENCY, 50., ! Needed so minimum frequency is recognized as fundamental
HARMONIC FREQUENCY SCAN { Non-negative DELFFS in 25-32 means F in Hz (not log F)
C   Controls of following request card:   MAXKNT  IOPCVP   { Ignore MAXKNT value
POCKET CALCULATOR VARIES PARAMETERS            0       1   { since also HFS loop
PRINTED NUMBER WIDTH, 11, 2,  { Request maximum precision (for 8 output columns)
   .0001     -1.     50.
       1       1       1       0       1
$PARAMETER   { This will be serviced by CIMAGE just as any other $-card would be
C SAVE ALL   { Until selective SAVEs work better, make all variables non-volatile
C              The preceding should be necessary.  Instead, it results in KILL
C              code because following resistance is not encoded right.  So,
C              remove temporarily.  Amazingly,  variable  SUM  seems believable.
RESISTANCE = 2.0 * (1.0 + 0.2 * (KNT - 1.0) ** 1.5))  { Funk-Hantel freq. dependence
BLANK card ends  $PARAMETER  definitions that are processed just b4 branch cards
$VINTAGE, 1,     { Wide:  RRRRRRRRRRRRRRRRLLL ....
  TRAN                    RESISTANCE                                           3
$VINTAGE, 0,   { Narrow:  RRRRRRLLLLLLCCCCCC
  GEN   TRAN              2.0      6.1
BLANK card ending program branch cards.
BLANK card terminating program switch cards (none, for this case)
  POLAR OUTPUT VARIABLES { 2nd of 3 alternatives gives mag, angle (not mag only)
14GEN         10200.        1.       0.0    { Power freq source has harmonic # 1
14GEN           500.        3.       0.0  { 3rd harmonic source has harmonic # 3
14GEN          3000.        5.       0.0
14GEN          2000.        7.       0.0
14GEN           600.       11.       0.0
BLANK card ending source cards
BLANK card ending F-dependent series R-L-C branches (none, for this subcase)
  GEN   TRAN
$POCKET      { This will be serviced by CIMAGE just as any other $-card would be
C  This is a comment within $POCKET.  It shows they are ignored.  Note placement
C  of this block as part of node-voltage outputs,  which ensures that it will be
C  processed after each phasor solution.  If one wanted to perform mathematics
C  on the solution,  this would be the appropriate location.  About summation,
C  values should be as follows:  Harmonic # KNT:  1   3   5   7   11
C                                Summation:       1   4   9  16   27
STEP = KNT   { Output is allowed only for local variables,  so copy KNT to local
SUM = SUM + KNT   { Preceding SAVE is for SUM, to accumulate sum of loop numbers
WRITE( '      -----------------------' ) { Statement can not go beyond column 40
WRITE( '  >>  Step KNT =', STEP )     $$ { The double dollar => continue on next
WRITE( '  Value of SUM =', SUM )         { No double dollar ===> end of out line
WRITE( '      =======================' ) { This separator line  goes on new line
C         There is a limit on the $$ concatensation.   ATP output line length is
C         132 bytes maximum.  It is the user's responsibility not to exceed this.
BLANK card ends  $POCKET  definitions to be processed after each phasor solution
BLANK card ending program output-variable requests.
  CALCOMP PLOT       { Use BOTH rather than DISK to see a bar chart of harmonics
 19680. 0.0600.         TRAN     { Units/inch of 5-7 are ingored since bar chart
BLANK card ending plot cards
BEGIN NEW DATA CASE
C   5th of 19 subcases is unrelated to the preceding.  Rather, it illustrates the
C   first use of superposition of phasor solutions.  Success occurred  8 Nov 98.
C   This is a brand new type of frequency scan.  It is fundamentally different
C   because of the superposition and continuation into the time-step loop.  In
C   the following, only the minimum of 2 phasor solutions are superimposed.  The 
C   more general case will involve repeated sets of excitation.  Each such set
C   begins with the request word  SUPERIMPOSE MORE SOURCES:  and ends with the       
C   blank card ending sources.  The final set of excitation is the one actually
C   used in the time-step loop,  so must include all sources of the preceding
C   sets,  if this is what the user wants.  Note  T-start  is not negative for
C   such additions, however.  Initial restriction: series R-L-C branches only.
PRINTED NUMBER WIDTH, 13, 2,  { Request maximum precision (for 8 output columns)
     .01     2.0
       1       1       1       1       1      -1
       5       5      20      20
  GEN   TRAN                 1.0   10.                                         3
  TRAN                                0.20E6                                   1
BLANK card ending program branch cards.
BLANK card terminating program switch cards (none, for this case)
14GEN            1.0       1.0                                     -1.
BLANK card terminating source cards for 1st phasor solution.
  SUPERIMPOSE MORE SOURCES:        { Request for superposition produced by more:
14GEN            1.0       1.0   { Source of 1st solution represented in dT-loop                                      
14GEN           -1.0       2.0   { 2nd harmonic source }           -1.
BLANK card terminating source cards for 2nd (and final) phasor solution.
  GEN   TRAN
C  First  3     output variables are electric-network voltage differences (upper voltage minus lower voltage);
C  Next   2     output variables are branch currents (flowing from the upper node to the lower node);
C   Step    Time        GEN          GEN          TRAN         GEN          TRAN
C                       TRAN                                   TRAN         TERRA
C     0     0.0   -.278585723          0.0  .2785857231  -.280475835  -.280475835
C     1     .01   -.258845905  .0059120271  .2647579317  -.272635821  -.272635821
C     2     .02   -.228080808  .0235315402  .2516123484  -.253187511  -.253187511
C     3     .03   -.187201315  .0525107648  .2397120803  -.222823212  -.222823212
BLANK card ending program output-variable requests.
C   100     1.0   -.278768592          0.0  .2787685919  -.280624596  -.280624596
C   120     1.2   .6447560418  1.118033989   .473277947  .6497741745  .6497741745
C   140     1.4    -1.4363837  -1.11803399  .3183497136  -1.33496603  -1.33496603
C   160     1.6   -.123925906  -1.11803399  -.994108083  -.293493889  -.293493889
C   180     1.8   1.194323606  1.118033989  -.076289617  1.259311865  1.259311865
C   200     2.0   -.278769536          0.0  .2787695359  -.280625592  -.280625592
C Variable max:   1.417160223  1.124996567  .6739357604  1.408960752  1.408960752
C Times of max:           .75          .79          1.3          .76          .76
C Variable min:   -1.69650701          -2.  -1.00648406  -1.68753921  -1.68753921
C Times of min:          1.46          0.5          .62         1.47         1.47
  CALCOMP PLOT
 143 .2 0.0 2.0         GEN   TRAN  { Screen plot is perfectly smooth & periodic
BLANK card ending all plot cards
BEGIN NEW DATA CASE
C   6th  of 19 subcases extends uncoupled R-L-C elements of the 5th to multiphase 
C   lumped elements.  Take a real 10-mile, 3-phase Pi-circuit from DC-3.  But we 
C   want a longer line, so increase frequency to 400 Hz. Of course, single phase
C   becomes 3-phase.  Line section is terminated by balanced R-L load to ground.
C   This solution was verified by comparing with one that omitted the second
C   harmonic during the phasor solution,  and extended T-max to 20 msec.  The
C   final 5 msec of voltages at  TRANA, TRANB, and TRANC  are very close to the
C   solution about to be demonstrated.  Also, in output below, compare step 0 
C   with step 100.  They are very close.  But step 200 is even closer to 100 (a
C   little settling has occurred;  this is discretization error).
PRINTED NUMBER WIDTH, 10, 2,
.0000250    .005   3000.
       1       1       1       1       1      -1
       5       5      20      20
 1GENA  TRANA             34.372457.68.15781                                    
 2GENB  TRANB             35.735164.43-.031538.002451.79.16587                  
 3GENC  TRANC             35.735164.43-.031537.455151.72-.021938.002451.79.16587
  TRANA                      20.  100.                                         1
  TRANB       TRANA                                                            1
  TRANC       TRANA                                                            1
BLANK card ending program branch cards.
BLANK card terminating program switch cards (none, for this case)
14GENA           1.0      400.       0.0                           -1.
14GENB           1.0      400.     -120.                           -1.
14GENC           1.0      400.     +120.                           -1.
BLANK card terminating source cards for 1st phasor solution.
C       ....  or  "Q".   The first solution frequency  =  4.00000000E+02  Hertz.
C GENA   1.0   1.0  .00651879225127  .01786478870371  .00325939612564  -.3270376674E-4
C        0.0   0.0  -.0166329799799      -68.5988095  .00831648998997        0.0061218
C       Total network loss  P-loss  by summing injections =   9.742991063317E-03
  SUPERIMPOSE MORE SOURCES:        { Request for superposition produced by more:
14GENA           1.0      400.       0.0   
14GENB           1.0      400.     -120.   
14GENC           1.0      400.     +120.   
14GENA           1.0      800.       0.0                           -1.
14GENB           1.0      800.     -120.                           -1.
14GENC           1.0      800.     +120.                           -1.
C       ....  or  "Q".   The first solution frequency  =  8.00000000E+02  Hertz.
C GENA   1.0   1.0  .00179922688615  .00899257899614  .89961344308E-3  -.1832029691E-4
C        0.0   0.0   -.008810746825      -78.4584168  .00440537341249        0.0031815
C       Total network loss  P-loss  by summing injections =   2.746542759765E-03
BLANK card terminating source cards for 2nd (and final) phasor solution.
  GENA  TRANA GENB  TRANB GENC  TRANC
C First  6     output variables are electric-network voltage differences (upper voltage minus lower voltage);
C Next   3     output variables are branch currents (flowing from the upper node to the lower node);
C Step      Time     GENA      TRANA     GENB      TRANB     GENC      TRANC     TRANA     TRANB     TRANC
C                                                                                TERRA     TERRA     TERRA
C    0       0.0        2.0  .6411782       -1.  -.655262       -1.  .0054071  .0081912  -.026551  .0176749
C    1    .25E-4   1.990141  .6719155  -.832151  -.619565  -1.15799  -.059291  .0104086   -.02703  .0159628
C    2     .5E-4   1.960698  .6964416  -.656435  -.578549  -1.30426  -.123014  .0125508  -.027293  .0141158
C    3    .75E-4   1.912064  .7145235   -.47495  -.532698  -1.43711   -.18506   .014596  -.027337  .0121521
C    4     .1E-3    1.84489  .7260175  -.289862  -.482595  -1.55503  -.244721  .0165237  -.027161  .0100912
C    5   .125E-3   1.760074  .7308739  -.103383  -.428865  -1.65669  -.301342  .0183147  -.026767  .0079542
C   10    .25E-3   1.118034  .6596136  .7736591  -.128596  -1.89169  -.520814  .0246777  -.021779  -.003099
C   15   .375E-3   .2787683  .4603086  1.384884  .1607557  -1.66365  -.603533  .0259314  -.013004  -.012782
C   20     .5E-3        -.5  .2026547  1.582676  .3644382  -1.08268  -.546164  .0222562  -.002864  -.018931
BLANK card ending program output-variable requests.
C   40     1.E-3        -.5  -.185466  -.064602  .1746455  .5646021  .0137459  -.003673  .0129232  -.008711
C   60     .0015        -.5  -.212516  .5646021  .2936534  -.064602  -.082817  -.005699  .0101002  -.004403
C   80      .002        -.5  -.445559  -1.08268  -.178062  1.582676  .6101375  -.021055  .0063503  .0143909
C  100     .0025        2.0  .6410699       -1.  -.655039       -1.  .0052891  .0081836  -.026535  .0176671
C  120      .003        -.5  .2025812  1.582676  .3645686  -1.08268  -.546224  .0222515  -.002854  -.018936
C  140     .0035        -.5  -.185508  -.064602  .1747437  .5646021  .0136866  -.003676  .0129291  -.008714
C  160      .004        -.5  -.212542  .5646021  .2937035  -.064602  -.082843  -.005701  .0101038  -.004405
C  180     .0045        -.5  -.445576  -1.08268   -.17803  1.582676  .6101221  -.021056  .0063525  .0143897
C  200      .005        2.0  .6410606       -1.  -.655017       -1.   .005275   .008183  -.026534  .0176664
C Variable maxima :     2.0  .7308739  1.582676   .443335  1.582676   .660407  .0261033   .013903  .0249648
C Times of maxima :     0.0   .125E-3      .003    .00315      .002     .0021    .35E-3     .0034   .002275
C Variable minima :  -1.125  -.540524  -1.89169  -.742149  -1.89169  -.603595  -.021087  -.027337  -.020627
C Times of minima : .004275    .00435    .00225   .002375    .25E-3   .002875   .004525    .75E-4     .0031
  CALCOMP PLOT
 144 .5 0.0 5.0         GENA  GENB  GENC  
 144 .5 0.0 5.0         TRANA TRANB TRANC
BLANK card ending all plot cards
BEGIN NEW DATA CASE
C   7th  of 19 subcases  demonstrates proper working of superposition of phasor
C   solutions for a constant-parameter, distributed line.   This  first was made
C   to work around sunset on  15 Nov 1998.  Two hours later, the switch was made
C   to work.   It had a bug of its own.   The switch is permanently closed,  and
C   does not change the answer.   Its addition merely demonstrates that switches
C   now are tolerated.   Still no frequency-dependent line, however.   That will
C   be left for the expert (BPA's Dr. Tsu-huei Liu), if she thinks it is doable.
POWER FREQUENCY, 50.,    { Unnecessary.  This merely avoids warning about 50 Hz.
PRINTED NUMBER WIDTH, 10, 2,  { Request maximum precision (for 8 output columns)
 .000100    .040     50.     50.    { Note L in ohms and C in micromhos at 50 Hz
       1       1       1       1       1      -1
       2      -1       5       5      20      20
-1SEND  REC                  0.3   0.4  12.6   80.    { 1-phase distributed line
  REC                              68. 1.2E4  { Series L-C load on line }      1
  GEN                        10.   40.  { Series R-L at source has no effect } 1
BLANK card ending branch cards
  GEN   SEND        -1.0       1.0 { Permanently close switch at sending end } 1
BLANK card ending switch cards
14GEN            1.0       50.    { 60-Hz phasor solution }        -1.
BLANK card ending source cards
C       Total network loss  P-loss  by summing injections =   1.702540183859E-02
C Output for steady-state phasor switch currents.
C  Node-K    Node-M       I-real            I-imag            I-magn         Degrees        Power            Reactive
C  GEN       SEND     2.81684507E-02   -1.93583035E-02    3.41790218E-02    -34.4982    1.40842254E-02    9.67915173E-03
  SUPERIMPOSE MORE SOURCES:        { Request for superposition produced by more:
14GEN            1.0      100.    { 60-Hz phasor solution }        -1.
14GEN            1.0       50.  
BLANK card terminating source cards for 2nd (and final) phasor solution.
C       Total network loss  P-loss  by summing injections =   1.174643954145E-03
C Output for steady-state phasor switch currents.
C  Node-K    Node-M        I-real            I-imag            I-magn        Degrees        Power            Reactive
C  GEN       SEND     8.10826370E-04   -4.85126124E-03    4.91855416E-03    -80.5114    4.05413185E-04    2.42563062E-03
C Add these 2 I-real parts: i(0) = .0810826370E-02 + 2.81684507E-02 = 2.89792770
  GEN   SEND  REC     { Names of nodes for voltage output
C  First  3     output variables are electric-network voltage differences (upper voltage minus lower voltage);
C  Next   3     output variables are branch currents (flowing from the upper node to the lower node);
C   Step      Time     GEN       SEND      REC       GEN       REC       GEN
C                                                    SEND      TERRA     TERRA
C ***      Phasor I(0) =  2.8979277E-02      Switch  "GEN   "  to  "SEND  "  closed in the steady-state.
C      0       0.0        2.0       2.0  .3104733  .0289793  .0288367  .0074208
C      1     .1E-3   1.997533  1.997533  .3168525  .0298758  .0298478  .0089264
C      2     .2E-3   1.990141  1.990141   .321957    .03074  .0308254  .0104164
C      3     .3E-3   1.977849  1.977849  .3249705  .0315697  .0317676  .0118871
C      4     .4E-3   1.960698  1.960698  .3259235  .0323632  .0326723  .0133347
BLANK card ending node voltage output requests
C    200       .02        2.0       2.0   .310624  .0289646  .0288207  .0074193
C    220      .022   1.118034  1.118034  .1167098  .0390118  .0406289  .0307644
C    240      .024        -.5       -.5  -.231522  .0292955  .0304699  .0301821
C    260      .026   -1.11803  -1.11803  .0536218  .0061988  .0055751  .0120831
C    280      .028        -.5       -.5  .7647646  -.015757  -.016915  -.002155
C    300       .03        0.0       0.0  .9147476  -.027333  -.027043  -.004344
C    320      .032        -.5       -.5  .1025405  -.029283  -.027728  -.006411
C    340      .034   -1.11803  -1.11803  -.858517   -.02491   -.02427  -.018205
C    360      .036        -.5       -.5  -.946641  -.013213  -.014641  -.029034
C    380      .038   1.118034  1.118034  -.226641  .0070384  .0051148  -.020297
C    400       .04        2.0       2.0   .310915  .0289599  .0288158   .007419
C Variable maxima :        2.0       2.0  .9786535  .0390245  .0406716  .0337317
C Times of maxima :        0.0       0.0     .0093      .002     .0021     .0029
C Variable minima :     -1.125    -1.125  -1.04338  -.029475  -.028141  -.029278
C Times of minima :      .0342     .0342     .0151     .0115     .0111     .0363
  CALCOMP PLOT
 144 4. 0.0 40.         SEND  REC          { Show node   voltages
 194 4. 0.0 40.         GEN   SEND  REC    { Show branch currents
BLANK card ending plot cards
BEGIN NEW DATA CASE
C   8th  of 19 subcases is like the preceding, only for 3-phase distributed line
C   modeling rather than single phase.  For simplicity,  the line is taken to be
C   continuously transposed.   So,  to make the solution interesting,  the  load
C   is unbalanced slightly.  The effect is substantial (must be near resonance).
C   As phasor output is becoming substantial,  illustrate lack of phasor output.
C   About receiving end voltages (1st plot), phase b is dominated by fundamental
C   whereas phase c is dominated by the harmonic.  On the other hand,  phase a
C   is a nice mixture of the two.  Done.  WSM,  15 November 1998  19:52
POWER FREQUENCY, 50.,    { Unnecessary.  This merely avoids warning about 50 Hz.
PRINTED NUMBER WIDTH, 10, 2,  { Request maximum precision (for 8 output columns)
 .000100    .040     50.     50.    { Note L in ohms and C in micromhos at 50 Hz
       1       1       1       0       1      -1
       2      -1       5       5      20      20
-1SENDA RECA                 0.3   0.4  12.6   80.    { 3-phase distributed line
-2SENDB RECB                 .03   0.1   6.0   80.
-3SENDC RECC
  RECA                             68. 1.2E4  { Series L-C load on line }      1
  RECB                             68. 1.3E4  { Series L-C: note imbalance }   1
  RECC                             68. 1.4E4  { Series L-C: note imbalance }   1
BLANK card ending branch cards
  GENA  SENDA       -1.0       1.0    { Permanently closed switch at sending end
  GENB  SENDB       -1.0       1.0   { Output 1 of 3 switch currents as demo } 1
  GENC  SENDC       -1.0       1.0
BLANK card ending switch cards
14GENA           1.0       50.       0.0                           -1.
14GENB           1.0       50.     -120.                           -1.
14GENC           1.0       50.     +120.                           -1.
BLANK card ending source cards
C       Total network loss  P-loss  by summing injections =   2.454594157981E-01
  SUPERIMPOSE MORE SOURCES:        { Request for superposition produced by more:
14GENA           1.0      100.       0.0                           -1.
14GENB           1.0      100.     -120.                           -1.
14GENC           1.0      100.     +120.                           -1.
14GENA           1.0       50.       0.0
14GENB           1.0       50.     -120.
14GENC           1.0       50.     +120.
BLANK card terminating source cards for 2nd (and final) phasor solution.
C       Total network loss  P-loss  by summing injections =   2.573693449262E-04
  SENDA SENDB SENDC RECA  RECB  RECC     { Names of nodes for voltage output
C  First  6     output variables are electric-network voltage differences (upper voltage minus lower voltage);
C  Next   3     output variables are branch currents (flowing from the upper node to the lower node);
C Step   Time     SENDA     SENDB     SENDC     RECA      RECB      RECC     RECA      RECB      RECC
C                                                                            TERRA     TERRA     TERRA
C ***   Phasor I(0) =  2.0781091E-04     Switch  "GENA  "  to  "SENDA "  closed in the steady-state.
C ***   Phasor I(0) = -6.9613077E-03     Switch  "GENB  "  to  "SENDB "  closed in the steady-state.
C ***   Phasor I(0) =  6.6629631E-03     Switch  "GENC  "  to  "SENDC "  closed in the steady-state.
C   0    0.0        2.0       -1.       -1.  2.598233  -3.43615  .2464431  .0129326  -.145918  .1293339
C   1  .1E-3   1.997533  -.917186  -1.08035   2.60044  -3.42472  .2130051  .0099301  -.135491  .1225758
C   2  .2E-3   1.990141  -.832151  -1.15799  2.597607  -3.40919  .1810295  .0069154  -.124907  .1156755