BEGIN NEW DATA CASE
C     BENCHMARK DCNEW-24
C     A collection of 19 simple cases for testing the usage of distributed line 
C     modeling.  Most deal with constant-parameter (K. C. Lee) modeling. Several 
C     frequency-dependent test cases can be found elsewhere, such as DC-31, 41, 
C     61, DCN4, DCN7, etc.
C       1st of 19 subcases is a test of 1-phase constant-parameter line.  
C       One switch is permanently closed.  No transients.  Plot of 
C       receiving end voltage is sinusoid.
C  DIAGNOSTIC           0 9 9 9 9 9 9 9 9 9 9 9 9 9 9 9 9 9 9
PRINTED NUMBER WIDTH, 13, 2,  { Request maximum precision (for 8 output columns)
 .000100    .020     60.     60.
       1       1       1       1       1      -1
       2      -1       5       5      20      20
  REC                       .001   { Near short at receiving end to ground }   3
-1SEND  REC                  0.3   0.4  12.6  100.    { 1-phase distributed line
BLANK card ending branch cards
  GEN   SEND        -1.0       1.0    { Permanently closed switch at sending end
BLANK card ending switch cards
14GEN           100.       60.    { 60-Hz phasor solution }        -1.
BLANK card ending source cards
C       Total network loss  P-loss  by summing injections =   5.992836086590E+01
C     GEN
C    SEND            100.             100.      1.1985672173179  1.9672525544427
C                     0.0              0.0      -1.559974114699      -52.4640241
C   Step     Time        REC          REC         SEND         GEN           REC
C                      TERRA                                               TERRA
C    0      0.0   .001198266   .001198266         100.         100.     1.198266
C    1    .1E-3  .0012585558  .0012585558  99.92894726  99.92894726  1.258555833
 1
C  200     .02   .0019138946  .0019138946  30.90169944  30.90169944  1.913894577
C Variable max : .0020173699  .0020173699         100.         100.  2.017369917
C Times of max :       .0025        .0025          0.0          0.0        .0025
C Variable min : -.002017453  -.002017453  -99.9921044  -99.9921044  -2.01745286
C Times of min :       .0108        .0108        .0083        .0083        .0108
  PRINTER PLOT
 194 4. 0.0 20.         REC                     { Axis limits : (-2.017,  2.017)
BLANK card ending plot cards
BEGIN NEW DATA CASE
C     2nd of 19 subcases involves use of trapped-charge source to initialize
C              an initially-disconnected single-phase line.  Later, energize the
C              line by switch closure at 3 msec.  The data was supplied by Dipl.
C              Ing. Bernd Stein of FGH (Mannheim, Germany) during April of 1986.
PRINTED NUMBER WIDTH, 13, 2,  { Request maximum precision (for 8 output columns)
 .000100    .020                { Unlike 1st of 2 subcases, here XOPT = COPT = 0
       1       1       0       1       1      -1
       2      -1       5       5      20      20 { Switch to alternate on step 2
  GEN   SWITCH                  39.8
  SWITCH                   1000.
-1SEND  REC                .3055 5.819 .0121 138.
BLANK card ending branch cards
  SEND  SWITCH      .003       1.0     { Transient begins at 3 msec with closure
BLANK card ending switch cards
C        1         2         3         4         5         6         7         8
C     78901234567890123456789012345678901234567890123456789012345678901234567890
14GEN           100.       60.                                    -1.0
14SEND  -1     -100.      .001   { Trapped-charge source }       5432.
C    End multiple-frequency phasor solution data.  The first source is a regular
C    60-Hertz generator, whereas the second has f = 1/1000 Hz for trapped charge
BLANK card ending source cards
C       Total network loss  P-loss  by summing injections =   4.998874616296E+00
C Last gen: SEND   -100.  100.  -.17408297E-12  .10491662826E-5  .8704148513E-11
C Last gen:       0.0   180.0   -.1049166283E-5    -90.0000095   -.5245831413E-4
C              Step     Time         REC          SEND       SWITCH          GEN
C               0       0.0         -100.        -100.  99.97749233         100.
C               1     .1E-3         -100.        -100.  99.96299489  99.92894726
C               2     .2E-3         -100.        -100.  99.80645119  99.71589003
 1                            { Request for the output of all four node voltages
C             200       .02   138.2909745  45.09406184  45.09406184  30.90169944
 144 2. 0.0 20.         SEND  REC              { Axis limits :  (-2.510,  2.052)
BLANK card ending plot cards
BEGIN NEW DATA CASE
C    3rd of 19 subcases to test a three-phase transposed constant-parameter
C    distributed line.  Narrow format was used (also in the next sub-case) 
C    initially.  On May 28, 1998, Orlando Havia reported problem of a case
C    which included a transposed line with wide format.   After making code 
C    corrections in INDIST, we changed the current sub-case data from 
C    "narrow format" to "wide format".  Same results were obtained, of course.
PRINTED NUMBER WIDTH, 12, 2,  { Request maximum precision (for 8 output columns)
 .000100    .020     60.     60.
       1       1       1       1       1      -1
       2      -1       5       5      20      20
  RECA                      .001
  RECB                      .001
  RECC                      .001
C  -1SENDA RECA                 0.3   0.4  12.6  100.
C  -2SENDB RECB                 .03   0.1   6.0  100.
C  -3SENDC RECC
$VINTAGE, 1
-1SENDA RECA                       0.3         0.4        12.6        100.    
-2SENDB RECB                       .03         0.1         6.0        100.    
-3SENDC RECC                                                                  
$VINTAGE, 0
BLANK card ending branch cards
  GENA  SENDA       -1.0       1.0
  GENB  SENDB       -1.0       1.0
  GENC  SENDC       -1.0       1.0
BLANK card ending switch cards
14GENA          100.       1.0                                     -1.
14GENB          100.       1.0                                     -1.
14GENC          100.       1.0                                     -1.
BLANK card ending source cards
C       Total network loss  P-loss  by summing injections =   4.997365737714E+02
C                                Output for steady-state phasor switch currents.
C         Node-K    Node-M            I-real            I-imag            I-magn
C         GENA      SENDA     0.33315772E+01   -0.73376324E-01    0.33323851E+01
C         GENB      SENDB     0.33315772E+01   -0.73376324E-01    0.33323851E+01
C         GENC      SENDC     0.33315772E+01   -0.73376324E-01    0.33323851E+01
C Last gen:    GENC
C Last gen:    SENDC      100.        100.      3.3315771584762  3.3323850989622
C Last gen:                0.0         0.0      -.0733763238755       -1.2617070
C  Step   Time      RECC       RECB       RECA       SENDC      SENDB      SENDA
C ***      Phasor I(0) =  0.3331577E+01   Switch  "GENA  "  to  "SENDA "  closed
C ***      Phasor I(0) =  0.3331577E+01   Switch  "GENB  "  to  "SENDB "  closed
C ***      Phasor I(0) =  0.3331577E+01   Switch  "GENC  "  to  "SENDC "  closed
C    0    0.0  .003331577 .003331577 .003331577       100.       100.       100.
C    1  .1E-3  .003331623 .003331623 .003331623 99.9999803 99.9999803 99.9999803
 1
C  200    .02  .003314635 .003314635 .003314635 99.2114701 99.2114701 99.2114701
C Variable max:.003332408 .003332408 .003332408       100.       100.       100.
C Times of max :    .0036      .0036      .0036        0.0        0.0        0.0
C Variable min:.003314635 .003314635 .003314635 99.2114701 99.2114701 99.2114701
C Times of min :      .02        .02        .02        .02        .02        .02
  PRINTER PLOT
C 144 2. 0.0 20.         RECA                     { Axis limits : (0.000,  3.332)
BLANK card ending plot cards
BEGIN NEW DATA CASE
C     4th of 19 subcases 
C     Modified and simplied from BENCHMARK DCPR-13 to test the usage of
C     transposed distributed line and its reference branches
PRINTED NUMBER WIDTH, 13, 2,  { Request maximum precision (for 8 output columns)
 100.E-6  13.E-3     60.
       1       1       1       2       1      -1
       5       5      20      20
-1ASW1  A5                .3    2.1146 0.645 50.   0
-2BSW1  B5                .0268 .5397  0.021 50.   0
-3CSW1  C5
-1ASW1  A6    ASW1  A5
-2BSW1  B6   
-3CSW1  C6   
 0A5                      1.
 0B5                      1.
 0C5                      1.
 0A6                      1.
 0B6                      1.
 0C6                      1.
BLANK card ending branch cards
BLANK card ending switch cards
14ASW1     303.       60.         0.0                        -1.
14BSW1     303.       60.      -120.0                        -1.
14CSW1     303.       60.       120.0                        -1.
BLANK card ending source cards
C     Total network loss  P-loss  by summing injections =   8.795928756794E+02
C  Node       Source  node  voltage      Injected  source  current              Injected  source  power
C  name   Rectangular     Polar       Rectangular            Polar            P  and  Q    MVA and P.F.
C  ASW1      303.         303.      1.9352978562803  22.293386285746      293.19762522646  3377.4480222904
C                                  0.0              0.0      -22.20922543208      -85.0198618      3364.6976529601        0.0868104
  A5    B5    C5    A6    B6    C6
C Step   Time        A5           B5           C5           A6           B6           C6
C   0     0.0   .9654332167  -10.1517405  9.186307306  .9654332167  -10.1517405  9.186307306
C   1   .1E-3   1.385353722  -10.3220076    8.9366539  1.385353722  -10.3220076    8.9366539
C   2   .2E-3   1.803446283  -10.4789931  8.675546863  1.803446283  -10.4789931  8.675546863
C   3   .3E-3   2.218965817  -10.6207468  8.401781028  2.218965817  -10.6207468  8.401781028
BLANK card ending the specification of program outputs (node voltages, here)
C 130    .013   -10.7903488  2.749051379  8.041297426  -10.7903488  2.749051379  8.041297426
C Variable max: 11.19141912  11.20899525  9.186307306  11.19141912  11.20899525  9.186307306
C Times of max:       .0039        .0095          0.0        .0039        .0095          0.0
C Variable min: -11.2139841  -11.1984112   -11.197694  -11.2139841  -11.1984112   -11.197694
C Times of min:       .0123        .0012        .0067        .0123        .0012        .0067
BLANK card ending plot cards
BEGIN NEW DATA CASE
C     5th of 19 subcases to test the usage of untransposed constant-
C     parameter distributed line 
PRINTED NUMBER WIDTH, 12, 2,  { Request maximum precision (for 8 output columns)
 .000100    .020     60.     60.
       1       1       1       1       1      -1
       2      -1       5       5      20      20
  RECA                      .001
  RECB                      .001
  RECC                      .001
$VINTAGE, 1
-1SENDA RECA               3.01532E-01 6.91748E+02 1.19375E+05-1.38000E+02 1  3
-2SENDB RECB               2.80361E-02 2.90916E+02 1.82804E+05-1.38000E+02 1  3
-3SENDC RECC               2.80251E-02 2.76507E+02 1.81679E+05-1.38000E+02 1  3
$VINTAGE, 0
  0.58094800  0.70710678 -0.40960438
  0.00000000  0.00000000  0.00000000
  0.57008669  0.00000000  0.81513711
  0.00000000  0.00000000  0.00000000
  0.58094800 -0.70710678 -0.40960438
  0.00000000  0.00000000  0.00000000
BLANK card ending branch cards
  GENA  SENDA       -1.0       1.0
  GENB  SENDB       -1.0       1.0
  GENC  SENDC       -1.0       1.0
BLANK card ending switch cards
14GENA          100.       1.0                                     -1.
14GENB          100.       1.0                                     -1.
14GENC          100.       1.0                                     -1.
BLANK card ending source cards
C     Total network loss  P-loss  by summing injections =   3.552806493326E+02
C Output for steady-state phasor switch currents.
C  Node-K   Node-M        I-real           I-imag           I-magn       Degrees        Power            Reactive
C  GENA     SENDA     2.42187574E+00  -3.00608892E-01   2.44046057E+00   -7.0755    1.21093787E+02    1.50304446E+01
C  GENB     SENDB     2.26186151E+00  -2.55853363E-01   2.27628611E+00   -6.4537    1.13093076E+02    1.27926682E+01
C  GENC     SENDC     2.42187574E+00  -3.00608892E-01   2.44046057E+00   -7.0755    1.21093787E+02    1.50304446E+01
C  First  9     output variables are electric-network voltage differences (upper voltage minus lower voltage);
C  Step      Time       RECC        RECB        RECA        SENDC       SENDB       SENDA       GENA        GENB        GENC
C ***  Phasor I(0) =  2.4218757E+00  Switch  "GENA  "  to  "SENDA "  closed in the steady-state.
C ***  Phasor I(0) =  2.2618615E+00  Switch  "GENB  "  to  "SENDB "  closed in the steady-state.
C ***  Phasor I(0) =  2.4218757E+00  Switch  "GENC  "  to  "SENDC "  closed in the steady-state.
C    0       0.0   .002421876  .002261861  .002421876        100.        100.        100.        100.        100.        100.
C    1     .1E-3   .002422064  .002262022  .002422064  99.9999803  99.9999803  99.9999803  99.9999803  99.9999803  99.9999803
C    2     .2E-3   .002422252  .002262182  .002422252   99.999921   99.999921   99.999921   99.999921   99.999921   99.999921
C    3     .3E-3   .002422439  .002262341  .002422439  99.9998223  99.9998223  99.9998223  99.9998223  99.9998223  99.9998223
 1  { Request for output of all node voltages
C  200       .02    .00244052  .002276156   .00244052  99.2114701  99.2114701  99.2114701  99.2114701  99.2114701  99.2114701
C Variable max :   .002440525  .002276343  .002440525        100.        100.        100.        100.        100.        100.
C Times of max :        .0197        .018       .0197         0.0         0.0         0.0         0.0         0.0         0.0
C Variable min :   .002421876  .002261861  .002421876  99.2114701  99.2114701  99.2114701  99.2114701  99.2114701  99.2114701
C Times of min :          0.0         0.0         0.0         .02         .02         .02         .02         .02         .02
BLANK card ending plot cards
BEGIN NEW DATA CASE
C     6th of 19 subcases to test the usage of untransposed distributed 
C     line and its reference branches
PRINTED NUMBER WIDTH, 13, 2,  { Request maximum precision (for 8 output columns)
 100.E-6 500.E-6     60.
       1       1       1       2      
$VINTAGE, 1
-1ASW1  A5                 3.01532E-01 6.91748E+02 1.19375E+05 1.38000E+02 1  3
-2BSW1  B5                 2.80361E-02 2.90916E+02 1.82804E+05 1.38000E+02 1  3
-3CSW1  C5                 2.80251E-02 2.76507E+02 1.81679E+05 1.38000E+02 1  3
$VINTAGE, 0
C   Note about preceding K.C. Lee branch cards.  As punched by LINE CONSTANTS,  
C   the length of 138 miles (4th number of each phase card) has an appended  
C   minus sign.  But as explained in the April, 2001, newsletter,  this serves
C   no useful purpose.  To illustrate that it no longer is necessary (following
C   branch data restructuring around 1997),  the minus signs will be erased from
C   columns 63 here and in all following subcases.  To see the original that
C   includes minus signs,  see preceding subcase (unchanged).  14 December 2000
  0.58094800  0.70710678 -0.40960438
  0.00000000  0.00000000  0.00000000
  0.57008669  0.00000000  0.81513711
  0.00000000  0.00000000  0.00000000
  0.58094800 -0.70710678 -0.40960438
  0.00000000  0.00000000  0.00000000
-1ASW1  A6    ASW1  A5
-2BSW1  B6   
-3CSW1  C6   
 0A5                      1.
 0B5                      1.
 0C5                      1.
 0A6                      1.
 0B6                      1.
 0C6                      1.
BLANK card ending branch cards
BLANK card ending switch cards
14ASW1     303.       60.         0.0                        -1.
14BSW1     303.       60.      -120.0                        -1.
14CSW1     303.       60.       120.0                        -1.
BLANK card ending source cards
C     Total network loss  P-loss  by summing injections =   2.046556158911E+02
C    Node    Source  node  voltage     Injected  source  current          Injected  source  power
C    name   Rectangular   Polar        Rectangular          Polar        P  and  Q    MVA and P.F.
C    ASW1         303.     303.     .60039311915995  7.1926653847594   90.959557552733   1089.688805791
C                       0.0                 0.0      -7.167563284658   -85.2117798      1085.8858376257        0.0834730
  A5    B5    C5    A6    B6    C6
C  First  6     output variables are electric-network voltage differences (upper voltage minus lower voltage);
C Step  Time        A5           B5           C5           A6           B6           C6
C   0    0.0   .3028039653  -3.45224148  3.184683842  .3028039653  -3.45224148  3.184683842
C   1  .1E-3   .4433227265  -3.51422565  3.106709385  .4433227265  -3.51422565  3.106709385
C   2  .2E-3   .5832573875  -3.57180736  3.024871794  .5832573875  -3.57180736  3.024871794
C   3  .3E-3   .7223632078  -3.62431333  2.938735696  .7223632078  -3.62431333  2.938735696
C   4  .4E-3   .8604425105  -3.67166896  2.848423493  .8604425105  -3.67166896  2.848423493
C   5  .5E-3   .9972990773  -3.71380695  2.754063524  .9972990773  -3.71380695  2.754063524
BLANK card ending the specification of program outputs (node voltages, here)
BLANK card ending plot cards
BEGIN NEW DATA CASE
C     7th of 19 subcases.
C     Illustration of usage of J. Marti's freq-depent line and its reference branches
PRINTED NUMBER WIDTH, 13, 2,  { Request maximum precision (for 8 output columns)
 100.E-6 300.E-6     60.
       1       1       1       2      
C    PUNCHED CARD OUTPUT OF "JMARTI SETUP" WHICH BEGAN AT  14.32.51  09/14/82
C   1.3636 .05215  4         1.602  -20.75   50.     50.
C   1.3636 .05215  4         1.602  -19.25   50.     50.
C   2.3636 .05215  4         1.602  - 0.75   77.5    77.5
C   2.3636 .05215  4         1.602    0.75   77.5    77.5
C   3.3636 .05215  4         1.602   19.25   50.     50.
C   3.3636 .05215  4         1.602   20.75   50.     50.
C   0.5    2.61    4         0.386  -12.9    98.5    98.5
C   0.5    2.61    4         0.386   12.9    98.5    98.5
C
C 100.         5000.         1                  138.       1           3-2
C 100.         60.00         1                  138.       1           3
C 100.           .01         1                  138.       1   9 10    3
C
-1ASW1  A5                    2.                    -2 3                       1
      18      0.47487144790587633736E+03
 -0.117967342612603676E+01 -0.316671345021416945E+01  0.255662317832426673E+02
 -0.601654631032706213E+02 -0.118825306534453652E+03  0.128169142098635430E+04
  0.589610442538186533E+04  0.292891488173549769E+05  0.115665757459954655E+06
  0.456394278488149546E+06  0.153681652821077613E+07  0.681848054466802243E+07
  0.155477562610202006E+08  0.231789897204889809E+08  0.143827766961221036E+08
  0.241524708800130989E+08  0.245049034784953832E+08  0.476808364145524129E+08
  0.321645453133055891E+00  0.897616891499021768E+00  0.165632367032913183E+01
  0.166669419493737986E+01  0.253073682990780913E+01  0.200014655383098283E+02
  0.124257951002701473E+03  0.657345842950598183E+03  0.278623017775457413E+04
  0.117145310573639467E+05  0.427410884649070877E+05  0.202553264108715757E+06
  0.968789502295299084E+06  0.296908522006270138E+07  0.737968316276072920E+07
  0.121009167337626640E+08  0.132891445947112725E+08  0.252097199908134253E+08
      14      0.86849922355034181931E-03
  0.580543547692016874E-01  0.269744993210885436E+00  0.358646519088149721E+00
  0.775351125410302933E+00  0.512138885239557462E+01  0.838265420474258915E+01
  0.700229782114550385E+02  0.393084113996385128E+03  0.138208543918962840E+04
  0.706160326497018531E+03  0.527246586822120662E+04  0.528343251309079615E+05
  0.178307801042203880E+08 -0.178914532139174500E+08
  0.228360173022402533E+02  0.102750699821169636E+03  0.139222638455845377E+03
  0.269608322018776320E+03  0.389220463867018722E+03  0.427793721751318500E+03
  0.132148883486994549E+04  0.277178340638843952E+04  0.449341296469570784E+04
  0.596603161966094024E+04  0.114714152641659587E+05  0.268314807408425590E+05
  0.204027813729699328E+05  0.204231841543429041E+05
-2BSW1  B5                    2.                    -2 3                       1
      13      0.28580875773089406522E+03
  0.381761604345214016E+04 -0.269529222495194318E+04  0.445018224900628539E+03
  0.214658130219351907E+03  0.897325461203551775E+02  0.130480129629523390E+03
  0.683037485206990933E+02  0.746626715384045969E+02  0.133938729387751110E+04
  0.249954495902361043E+04  0.187764116219525090E+05  0.391031620802855759E+06
  0.562668431190421223E+07
  0.358668999787749571E+01  0.376679186833120605E+01  0.706439034439901437E+01
  0.109721634064781350E+02  0.140506334140286961E+02  0.234292596911152251E+02
  0.407686998675834982E+02  0.797598814775078289E+02  0.129106739969348078E+04
  0.242138030939135859E+04  0.182362646041542116E+05  0.379814243183306855E+06
  0.548808385606378759E+07
      13      0.74123751236187229426E-03
  0.192189595814863363E+02  0.210970481418782463E+01  0.383406546226866283E+02
  0.307999912886148377E+02  0.634013410317139090E+03 -0.253243195247046863E+03
  0.210540381301789816E+05  0.755533947306502050E+05  0.229576557459444489E+07
  0.607777584135737231E+13 -0.156620677810598129E+13  0.153143851607186420E+13
 -0.604300997216751013E+13
  0.325736126030671755E+04  0.366694913707514260E+03  0.675727697588602189E+04
  0.516024976370228876E+04  0.249456113770459378E+05  0.115067772934717399E+06
  0.105205466546493019E+06  0.240930799961836921E+06  0.633276538663731131E+06
  0.975820481990592802E+06  0.976796302472583498E+06  0.974176721795814519E+06
  0.975150898517610403E+06
-3CSW1  C5                    2.                    -2 3                       1
      13      0.27248404992352924125E+03
  0.928429573805075023E+03  0.205756155237142632E+03  0.538106630554037608E+03
  0.105199818376817531E+03  0.821382476778671116E+02  0.133356875032521778E+03
  0.654774478488469374E+02  0.612546121562179922E+02  0.905544916173387175E+02
  0.973244316091135204E+03  0.267481871266201051E+04  0.138566411938941123E+05
  0.646075558955914967E+06
  0.297277477955690506E+01  0.413177069940672514E+01  0.739410817322770197E+01
  0.103072536754267949E+02  0.135874091964585515E+02  0.234792992956042887E+02
  0.384075708508238121E+02  0.692539345057236435E+02  0.997101922255402791E+02
  0.941460937860312015E+03  0.259295974388396348E+04  0.134538093446956691E+05
  0.628668738677182439E+06
      20      0.74871165651714274120E-03
  0.249456855794677017E-01  0.516637614002139312E+01  0.435227595525510835E+01
  0.696293545843379624E+01  0.113102519337405665E+02  0.107077756312168120E+02
  0.136526319661978881E+02  0.103057494642840792E+03  0.647491597081196815E+03
  0.221213037293261823E+04  0.164010494681972204E+05  0.517776934139508076E+05
  0.393233870054795443E+06 -0.101893253559274247E+05 -0.173413454816459129E+06
  0.524218185885897590E+06  0.711044562955687729E+12 -0.559640645251973480E+12
  0.582892127161358521E+12 -0.734296849907947113E+12
  0.887741958857318814E+01  0.183177145564733675E+04  0.151655674045953921E+04
  0.245910936284398730E+04  0.383273362703089043E+04  0.399285585783856465E+04
  0.496339281485561617E+04  0.253464455063045348E+05  0.272156609769823021E+05
  0.475215596432249440E+05  0.149791320991727040E+06  0.333884409922466803E+06
  0.541583000670874084E+06  0.670984155731562481E+06  0.569769858667429973E+06
  0.132622344670840449E+07  0.440534234233555838E+07  0.440974768467789434E+07
  0.436787151891064062E+07  0.437223939042955148E+07
  0.57154434  0.70710678 -0.41761362
  0.00000000  0.00000000  0.00000000
  0.58879039  0.00000000  0.80696823
  0.00000000  0.00000000  0.00000000
  0.57154434 -0.70710678 -0.41761362
  0.00000000  0.00000000  0.00000000
-1ASW1  A6    ASW1  A5                                                         1
-2BSW1  B6                                                                     1
-3CSW1  C6                                                                     1
 0A5                      1.
 0B5                      1.
 0C5                      1.
 0A6                      1.
 0B6                      1.
 0C6                      1.
BLANK card ending branch cards
BLANK card ending switch cards
14ASW1     303.       60.         0.0                        -1.
14BSW1     303.       60.      -120.0                        -1.
14CSW1     303.       60.       120.0                        -1.
BLANK card ending source cards
C     Total network loss  P-loss  by summing injections =   2.133855256689E+02
C  Node     Source  node  voltage   Injected  source  current         Injected  source  power
C  name    Rectangular   Polar     Rectangular           Polar        P  and  Q    MVA and P.F.
C  ASW1      303.        303.      .67037929574644  7.1896162837701    101.56246330559  1089.2268669912
C            0.0         0.0       -7.158294064069      -84.6498145    1084.4815507065        0.0932427
  A5    B5    C5    A6    B6    C6
C  First  6     output variables are electric-network voltage differences (upper voltage minus lower voltage);
C  Next   6     output variables are branch currents (flowing from the upper node to the lower node);
C  Step    Time        A5           B5           C5           A6           B6           C6           ASW1         BSW1
C                                                                                                    A5           B5
C                      CSW1         ASW1         BSW1         CSW1
C                      C5           A6           B6           C6
C   0     0.0   .3364801616  -3.43708937  3.192249668  .3364801616  -3.43708937  3.192249668  .3351896479  -3.30243673
C               3.056683557  .3351896479  -3.30243673  3.056683557
C   1   .1E-3   .4768147829  -3.49823033  3.114777824  .4768147829  -3.49823033  3.114777824  .4699942576  -3.36074443
C                 2.9818637  .4699942576  -3.36074443    2.9818637
C   2   .2E-3   .6165162541  -3.55507115  3.033529893  .6165162541  -3.55507115  3.033529893  .6039611281  -3.41481401
C               2.903532996  .6039611281  -3.41481401  2.903532996
C   3   .3E-3   .7553410187  -3.60686214  2.947972502  .7553410187  -3.60686214  2.947972502  .7370685919  -3.46403253
C               2.821077973  .7370685919  -3.46403253  2.821077973
BLANK card ending the specification of program outputs (node voltages, here)
BLANK card ending plot cards
BEGIN NEW DATA CASE
C     8th of 19 subcases.
C     Modified BENCHMARK DC-12
C     One copy of the special double-circuit is added to this subcase to 
C     demonstrate the skipping of calculation of the transformation matrix 
C     for continuously transposed lines once the needed matrix has already
C     been calculated before.  Note that List 21 usage is shown to be 45
C     for this subcase:  6x6 + 3x3 = 45.   However, before December, 1997,
C     List 21 from ATP or BPA's EMTP would be 162 = 2 x ( 6x6 + 3x3 + 6x6 )
$NEW EPSILN, 1.E-9,    { Not needed;  Just added to prove the card is recognized
C  $WATCH, 25, { Illustrate extra echoing of cards to CRT periodically (every 25th)
PRINTED NUMBER WIDTH, 12, 2,   { Full precision on each of 9 columns of printout
 .000050    .025     60.
       1       1       1       3       1      -1
       5       5      20      20     100     100
 0CJA   X32A                    .01                                            1
 0CJB   X32B                    .01                                            1
 0RAA   XA                      .01
 0RAB   XB                      .01
 0RAGA  RAA                     26.                                            1
 0RAGB  RAB                     26.                                            1
 0RAGC  RAC                     26.                                            1
 0CJGA  CJA                     28.
 0CJGB  CJB                     28.
 0CJGC  CJC                     28.
 0VC    Y17C                     26.
 0VB    Y17B                     26.
 0VA    Y17A                     26.
 0RAA   YA                       .01                                           1
 0RAB   YB                       .01                                           1
 0RAC   YC                       .01                                           1
 0XC                            1680.
 0X16B  T                 1.0E18                                               2
 0X16C  T                 1.0E18                                               2
 0X16A  T                 1.0E18                                               2
 0T                       65.                                                  1
 1XA    X1A               .3545 3.2009.0476
 2XB    X1B               .2599  1.543-.0088.349  3.2067.0449
 3XC    X1C               .2624  1.484-.006 .2599 1.543 -.0087.3545 3.2009.0479
 4YA    Y1A               .2619  1.128-.0008.2595 1.1848-.0018.2622 1.2824-.0025
                          .3657 3.6724 .0363
 5YB    Y1B               .2615 1.0374-.0004.2592 1.0834-.001 .2619 1.1492-.0011
                          .2624 1.5455-.0052.3656 3.6724.0361
 6YC    Y1C               .261  .9663 -.0003.2588 1.005 -.0007.2616 1.054 -.0006
                          .2623 1.3076-.002 .2624 1.551 -.0053.3656 3.6724 .036
 1X1A   X2A               1.05749.547 .1421
 2X1B   X2B               .7752 4.602 -.026 1.042 9.564 .1353
 3X1C   X2C               .7826 4.426 -.018 .7752 4.602 -.02561.057 9.547 .1428