BEGIN NEW DATA CASE
C     BENCHMARK DCNEW-21
C       James Randall of BPA suggested the linear scaling of angles during a
C       FREQUENCY SCAN  as explained in the July, 1997, newsletter.  First (this
C       subcase),  we show his old solution (note blank columns 57-64 of the
C       FREQUENCY SCAN  card).  This,  he says,  is wrong for engineering.  The
C       angles of the sources remain fixed at the values specified on the Type-
C       14 source cards.  At each frequency,  the source is balanced, 3-phase:
C       1st of 21 subcases (only 2nd is related to this first one).
C         21 March 2001,  expand to illustrate Pisa-format .PL4 file for normal,
C         old  FREQUENCY SCAN.  This is the 3rd of 3 Pisa-format illustrations.
C         The 4th subcase of  DCNEW-22  is for time simulation,  and the 15th
C         subcase of this same disk file is for verification of HFS.  While HFS
C         and FS should be structurally comparable,  in fact the illustrations
C         are quite different because this present example involves 2 output
C         parts (magnitude and angle) for each variable.  The 15th subcase only
C         involved a single output part.  This was the default,  and the most
C         common choice.  But polar output is not rare,  so had better be shown
C         to work for Pisa-format files.  To confirm that Pisa-format .PL4 file
C         really is being used,  turn on diagnostic printout for overlay 28 and
C         search the  .DBG  file for  LU4BEG.  Pisa will be mentioned.
$DEPOSIT, NEWPL4=2 { Use SPY DEPOSIT to change .PL4 file type from STARTUP value
C    To prove that Pisa-format code is being used,  it  is easy to turn on debug
C    printout.  Use here is like that pioneered in subcase 15,  which did HFS.
C    But diagnostic here requires more care because the network is bigger and
C    there are more harmonics (overlay 11 would produce a lot).  It is easiest
C    just to turn on diagnostic for plotting (see following card).  In the
C    .DBG file,  look for the name  LU4BEG  to see Pisa-related data values. 
C DIAGNOSTIC                                                                 9
PRINTED NUMBER WIDTH, 11, 2,   { Each column of width 11 includes 2 blank bytes
FREQUENCY SCAN              30.0    30.0   500.0
 10.0E-6  -.1000    60.0     0.0
       1       1
  TRANSFORMER             0.001 100.0 TX01A
            9999
 1WYEA                    0.500 5.000 139.43
 2DELTA DELTB             0.050 0.500 13.800
  TRANSFORMER TX01A                   TX01B
 1WYEB
 2DELTB DELTC
  TRANSFORMER TX01A                   TX01C
 1WYEC
 2DELTC DELTA
  DELTA                               0.10
  DELTB                               0.10
  DELTC                               0.10
  WYEA                    0.001
  WYEB                    0.001
  WYEC                    0.001
  SRC1A DELTA             0.001
  SRC1B DELTB             0.001
  SRC1C DELTC             0.001
BLANK card ending branch cards
BLANK card ending non-existent switch cards
  POLAR OUTPUT VARIABLES { 2nd of 3 alternatives gives mag, angle (not mag only)
C   The preceding is 2nd of 3 alternatives.  The other 2 are,  after commenting:
C BOTH POLAR AND RECTANGULAR    { Request for (in order): mag, angle, real, imag
C RECTANGULAR OUTPUT VARIABLES   { 3rd of 3 alternative outputs gives real, imag
14SRC1A -1   1.00        60.0       0.0                       -1.0
14SRC1B -1   1.00        60.0    -120.0                       -1.0
14SRC1C -1   1.00        60.0     120.0                       -1.0
BLANK card ending all electric source cards
C    Note: following branch output replaces node voltage for SRC1A.  Because
C          no polarity reversal here,  this is, in fact, the node voltage.
C          But original plot was the negative of the node voltage because it
C          was requested as (MAG, SRC1A).  We do likewise here (below).
-5SRC1A          { -5 ==> 2A6 name pairs for voltage differences (branch V)
  SRC1B SRC1C
C Column headings for the  3   output variables follow.  These are divided among the 3 possible FS variable classes as follows ....
C  First  3     output variables are electric-network voltage differences (upper voltage minus lower voltage);
C  For each variable, magnitude is followed immediately by angle.  Both halves of the pair are labeled identically, note.
C Step   F [Hz]     SRC1A      SRC1A      SRC1B      SRC1B      SRC1C      SRC1C
C                   TERRA      TERRA
C   1     30.   .09351069  78.087254  .09351069  -41.91275  .09351069  -161.9127
C   2     60.   .18400971  83.978526  .18400971  -36.02147  .18400971  -156.0215
C   3     90.   .27517196   85.97743  .27517196  -34.02257  .27517196  -154.0226
BLANK card ending node voltage outputs
C  15    450.   1.3731177  89.193946  1.3731177  -30.80605  1.3731177  -150.8061
C  16    480.   1.4647197  89.244282  1.4647197  -30.75572  1.4647197  -150.7557
C  17    510.   1.5563378  89.288695  1.5563378  -30.71131  1.5563378  -150.7113
  PRINTER PLOT
C 183 5.     -1.               SRC1A
C     The preceding plot card was used until 21 March 2001 when this test case
C     was switched from normal C-like .PL4 file to Pisa-format C-like .PL4 file
C     by means of the assignment  NEWPL4 = 2  near the start.  It turns out this
C     changed the plot a little because the preceding plot request is to plot
C     all available points.  Whereas the nominal ending frequency F-max is 500,
C     ATP did produce a solution for 510 after completing 480.  This happens for
C     either type of .PL4 file.  But plotting is different.  The Pisa-format
C     file knows that the user-declared  F-max = 500,  and this will be read
C     from the disk file at the start of plotting,  thereby erasing the 510 that
C     was stored in memory.  The preceding plot card then would plot to 500, not
C     to 510.  To produce an identical plot,  we must specify  102 seconds (Hz)
C     per inch,  F-min = 0.0  and  F-max = 510  as follows:
 183102 0.0510.               SRC1A
C     Of course,  since these are nice round numbers,  the plot is so labeled.
C     Not so for the original,  which involved roundoff.  Remember, the plot
C     file is only single precision,  so 7 or 8 digits is the limit of math.
C     Look at the labeling after 1 inch:  102.000001     By switching to a Pisa-
C     format file,  such roundoff disappears.  The value is just 102.                                                                                                                  |
BLANK card terminating plot cards
BEGIN NEW DATA CASE
C     BENCHMARK DCNEW-21
C       2nd of 21 subcases shows the "corrected" solution that James Randall  
C       says makes engineering sense:  the linear scaling of angles during
C       the  FREQUENCY SCAN.  Here the source is balanced 3-phase at the given
C       frequency (60 Hz),  but will be zero-sequence at the 3rd harmonic
C       (3 * 120 degrees = 360 degrees).  Since current is being injected,
C       the resulting voltage is a measure of the zero-sequence impedance.
C       A delta-connected transformer winding represents a high impedance
C       to such currents,  and this will produce high voltage at 180 Hz.
C   Columns 57-64 of following card define the James Randall Memorial Frequency:                       
$DEPOSIT, NEWPL4=0 { Use SPY DEPOSIT to cancel the value set in preceding subcas
FREQUENCY SCAN              30.0    30.0   500.0            60.0
 10.0E-6  -.1000    60.0     0.0
       1       1       0       0       1
  TRANSFORMER             0.001 100.0 TX01A
            9999
 1WYEA                    0.500 5.000 139.43
 2DELTA DELTB             0.050 0.500 13.800
  TRANSFORMER TX01A                   TX01B
 1WYEB
 2DELTB DELTC
  TRANSFORMER TX01A                   TX01C
 1WYEC
 2DELTC DELTA
  DELTA                               0.10
  DELTB                               0.10
  DELTC                               0.10
  WYEA                    0.001                                                3
  WYEB                    0.001
  WYEC                    0.001
  SRC1A DELTA             0.001
  SRC1B DELTB             0.001
  SRC1C DELTC             0.001
C    Preceding data subcase used no column-80 punches.  We had one branch
C    voltage,  but it was requested by  "-5"  along with node voltages.  Here,
C    we illustrate the equivalent output, only using column 80:
  SRC1A                    1.E18                                               2
BLANK card ending branch cards
BLANK card ending non-existent switch cards
14SRC1A -1   1.00        60.0       0.0                       -1.0
14SRC1B -1   1.00        60.0    -120.0                       -1.0
14SRC1C -1   1.00        60.0     120.0                       -1.0
BLANK card ending all electric source cards
  SRC1B SRC1C
C  First  4     output variables are electric-network voltage differences (upper voltage minus lower voltage);
C  Next   1     output variables are branch currents (flowing from the upper node to the lower node);
C  Only the magnitude of each variable is outputted.  This is the default choice,  which was not superseded by any request.
C   Step   F [Hz]       WYEA       SRC1A      SRC1B      SRC1C      WYEA
C                       TERRA      TERRA                            TERRA
C      1       30.   .32992E-4  35367.735  35367.797  35367.764  .03299152
C      2       60.   .57143E-4  .18400971  .18400971  .18400971  .05714329
C      3       90.   .65984E-4  5894.9935  5894.4445  5894.4445  .06598395
BLANK card ending node voltage outputs
C     15      450.   .66009E-4  1180.7561  1178.0102  1178.0102  .06600855
C     16      480.   .57168E-4  1.4647197  1.4647197  1.4647197  .05716813
C     17      510.   .33008E-4   2079.938  2080.6998  2080.7333  .03300792
C Variable maxima :  .66009E-4  35367.735  35367.797  35367.764  .06600855
C F [Hz] of maxima:       450.        30.        30.        30.       450.
C Variable minima :  .3118E-17  .18400971  .18400971  .18400971  .3118E-14
C F [Hz] of minima:       360.        60.        60.        60.       360.
  PRINTER PLOT
 183 5.     -1.               SRC1A
BLANK card terminating plot cards
BEGIN NEW DATA CASE
C         3rd of 21 subcases is unrelated to the preceding two.   Instead,  it
C         introduces  HARMONIC FREQUENCY SCAN  by Gabor Furst.  Added around the
C         end of 1997,  it will not be described before the April, 1998, issue
C         of the newsletter.  This example involves 1 source and 6 harmonics.
C         Cols. 21-30 of the source cards carry frequency in Hz because minimum
C         is equal to the power frequency (50).  For more sources, harmonics, 
C         and the use of harmonic numbers rather than frequency, see 4th subcase
C            3 November 1998, add branch from  NONE  to earth to illustrate  the
C            correct handling of unexcited branches.  See Jan, 1999, newsletter.
PRINTED NUMBER WIDTH, 11, 2,    { Each column of width 11 includes 2 blank bytes
POWER FREQUENCY, 50., ! Needed so mimimum frequency is recognized as fundamental
C HARMONIC FREQUENCY SCAN     -1.0     DELFFS < 0 ==> log F (not F) in .PL4 file
HARMONIC FREQUENCY SCAN { Non-negative DELFFS in 25-32 means F in Hz (not log F) 
     1.0     0.0
       1       1       1       0       1  { Note request for phasor branch flows
  SWIT  LOAD                 10.                                               3
  NONE                       2.0                                               1
  LOAD                           1000.
-1SWIT  OPEN               .3055  5.82  .012   1.0   { One mile of DC-37 line
BLANK card ending all branches
  GEN   SWIT         -1.                                                       1
BLANK card ending all switch cards
14GEN            1.0       50.       0.0  { Note comment and no negative T-start
14GEN            1.3      100.       0.0  { Note comment and no negative T-start
14GEN            1.5      200.       0.0  { Note cols. 21-30 is frequency in Hz
14GEN            1.4      300.       0.0
BLANK card ending source cards
BLANK card ending F-dependent series R-L-C branches (none, for this subcase)
  GEN   LOAD   { Names of nodes for voltage output
C  First  3     output variables are electric-network voltage differences (upper voltage minus lower voltage);
C  Next   3     output variables are branch currents (flowing from the upper node to the lower node);
C  Step  F [Hz]       SWIT      GEN       LOAD       GEN        SWIT     SWIT
C                     LOAD                           SWIT       LOAD     NONE
C    1     50.   .03181488      1.0  .99949378  .00317772  .00318149      0.0
C    2    100.   .02068752      1.3  1.2998354  .00205895  .00206875      0.0
C    3    200.   .01193624      1.5  1.4999525    .001171  .00119362      0.0
C    4    300.   .00742713      1.4  1.3999803  .71104E-3  .74271E-3      0.0
C Variable max:  .03181488      1.5  1.4999525  .00317772  .00318149      0.0
C F [Hz] of maxima:     50.    200.       200.        50.         50.     50.
C Variable min:  .00742713      1.0  .99949378  .71104E-3  .74271E-3      0.0
C F [Hz] of minima:   300.      50.        50.       300.       300.      50.
C  Note currents of the final 2 columns agree less as frequency rises.  The
C  difference is charging current of that 1-mile distributed line section.  As
C  frequency goes to zero,  agreement is perfect due to no capacitive current.
BLANK card ends output requests (just node voltages, for FREQUENCY SCAN)
  CALCOMP PLOT  { Needed to cancel preceding PRINTER PLOT of 2nd subcase
C 19690. 0. 300.   0. 2. LOAD  mag
 14690. 0. 300.   0. 2. LOAD
C Derived from F-scan:  1) RMS value = 1.85719715E+00   2) THD = 2.43009301E+02%
BLANK card ending plot cards
BEGIN NEW DATA CASE
C         4th of 21 subcases is related to the preceding one.  It illustrates
C         HARMONIC FREQUENCY SCAN (HFS) by Gabor Furst.  This example involves
C         more sources (2) and harmonics (14).  Cols. 21-30 of the source cards
C         carries harmonic numbers rather than frequencies in Hz because minimum
C         is unity rather than equal to the power frequency 50.
PRINTED NUMBER WIDTH, 11, 2,   { Each column of width 11 includes 2 blank bytes
POWER FREQUENCY, 50., ! Needed so mimimum frequency is recognized as fundamental
C HARMONIC FREQUENCY SCAN     -1.0   DELFFS < 0 ==> log F (not F) in .PL4 file
HARMONIC FREQUENCY SCAN { Non-negative DELFFS in 25-32 means F in Hz (not log F) 
     1.0     0.0
       1       1       1       0          { Note request for phasor branch flows
  SWIT  LOAD                 10.                                               1
  LOAD  EARTH                    1000.
-1SWIT  OPEN               .3055  5.82  .012  138.
BLANK card ending all branches
  GEN   SWIT         -1.                                                       2
BLANK card ending all switch cards
14GEN            1.0        1.       0.0  { Note comment and no negative T-start
14GEN            1.3        2.       0.0  { Note comment and no negative T-start
14GEN            1.5        4.       0.0  { Note cols. 21-30 is harmonic number
14GEN            1.4        6.       0.0
14GEN            1.1        8.       0.0
14GEN            0.7       10.       0.0
14GEN            0.5       12.       0.0
14GEN            0.3       14.       0.0
14EARTH       1.E-19        1.       0.0  { 2nd source has amplitude almost zero
14EARTH       1.E-19        4.       0.0  { 2nd source involves fewer harmonics
BLANK card ending source cards
BLANK card ending F-dependent series R-L-C branches (none, for this subcase)
C   Following is added after col.-80 punch on switch was changed to 2 from 3.
C   Here the default name SWT001 is used to access the first switch.
-1SWT001    { -1 ==> Branch/switch current out;  use A6 component names
  GEN   LOAD   { Names of nodes for voltage output
C  First  3     output variables are electric-network voltage differences (upper voltage minus lower voltage);
C  Next   2     output variables are branch currents (flowing from the upper node to the lower node);
C   Step   F [Hz]       GEN        GEN        LOAD       GEN        SWIT
C                       SWIT                             SWIT       LOAD
C      1       50.         0.0        1.0  .99949378  .00263778  .00318149
C      2      100.         0.0        1.3  1.2998354  .42222E-3  .00206875
C      3      200.         0.0        1.5  1.4999525  .01598538  .00119362
BLANK card ends output requests (just node voltages, for FREQUENCY SCAN)
C      4      300.         0.0        1.4  1.3999803  .00365709  .74271E-3
C      5      400.         0.0        1.1  1.0999913  .83054E-3  .43767E-3
C      6      500.         0.0        0.7  .69999645  .30433E-3  .22282E-3
C      7      600.         0.0        0.5  .49999824  .00174186  .13263E-3
C      8      700.         0.0        0.3  .29999922  .00120951  .68209E-4
  CALCOMP PLOT  { Needed to cancel preceding PRINTER PLOT of 2nd subcase
C 19690. 0. 900.   0. 2. LOAD  mag
 14690. 0. 900.   0. 2. LOAD
C Derived from F-scan:  1) RMS value = 2.11404071E+00   2) THD = 2.81911204E+02%
BLANK card ending plot cards
BEGIN NEW DATA CASE
C         5th of 21 subcases illustrate  HARMONIC FREQUENCY SCAN  by Gabor Furst
C         using one of the new frequency-depend resistors.   The concept is more
C         general than just R in that it applies to R, L, and C  of series R-L-C
C         branch.  There are two points for each parameter,  allowing a straight
C         line to be drawn thru them for linear interpolation at each frequency.
C         Note values (R, F) = (5, 50) and (50, 500)  ===>  R(F) = F / 10.   The
C         inductance gives  X = wL = 6.28 * .01 * F = .0628 * F.  So, looding at
C         V-node of LOAD, impedance division ==> V = jX / ( R + jX ).  Dividing
C         out the jX,  1/V = 1 + 0.1 / j.0628 ) = 1 - j /.0628 ==> V = .28 +j.45
C         = .53 /__ 57.9 degrees.  So, V is a constant, independent of frequency 
C         because R is proportional to frequency.  This makes verification easy.
POWER FREQUENCY, 50., ! Needed so mimimum frequency is recognized as fundamental
HARMONIC FREQUENCY SCAN { Non-negative DELFFS in 25-32 means F in Hz (not log F) 
     1.0     0.0
       1       1       1       1       1  { Note request for phasor branch flows
  GEN   LOAD                  5.  { F-dependent resistance gives R at power freq
  LOAD                             10.  { Constant inductance (nothing new here)
BLANK card ending all branches
BLANK card ending all switch cards
  POLAR OUTPUT VARIABLES { 2nd of 3 alternatives gives mag, angle (not mag only)
14GEN            1.0       50.       0.0  { Note comment and no negative T-start
14GEN            1.0      100.       0.0  { Note comment and no negative T-start
14GEN            1.0      200.       0.0  { Note cols. 21-30 is frequency in Hz
14GEN            1.0      300.       0.0
BLANK card ending source cards
NEXT FREQUENCY FOR SERIES RLC       500.  { Elevated frequency for interpolation
  GEN   LOAD                 50.   { R of F-dependent resistance at higher freq.
BLANK card ending F-dependent series R-L-C branches
-1LIN001    { -1 ==> Branch/switch current out;  use A6 component names
-4LIN002    { -4 ==> Branch/switch power & energy;  use A6 component names
  GEN   LOAD   { Names of nodes for voltage output
C  First  3     output variables are electric-network voltage differences (upper voltage minus lower voltage);
C  Next   2     output variables are branch currents (flowing from the upper node to the lower node);
C  For each variable, magnitude is followed immediately by angle.  Both halves of the pair are labeled identically, note.
C Step   F [Hz]       LOAD       LOAD       GEN        GEN        LOAD       LOAD       GEN        GEN        LOAD       LOAD
C                     TERRA      TERRA                                                  LOAD       LOAD       TERRA      TERRA
C   1       50.   .53201804  57.858092        1.0        0.0  .53201804  57.858092   .1693466  -32.14191   .1693466  -32.14191
C   2      100.   .53201804  57.858092        1.0        0.0  .53201804  57.858092   .0846733  -32.14191   .0846733  -32.14191
C   3      200.   .53201804  57.858092        1.0        0.0  .53201804  57.858092  .04233665  -32.14191  .04233665  -32.14191
C   4      300.   .53201804  57.858092        1.0        0.0  .53201804  57.858092  .02822443  -32.14191  .02822443  -32.14191
BLANK card ends output requests
C Variable max :  .53201804  57.858092        1.0        0.0  .53201804  57.858092   .1693466  -32.14191   .1693466  -32.14191
C F [Hz] of max:        50.        50.        50.        50.        50.        50.        50.        50.        50.       300.
C Variable min :  .53201804  57.858092        1.0        0.0  .53201804  57.858092  .02822443  -32.14191  .02822443  -32.14191
C F [Hz] of min:        50.       300.        50.        50.        50.       300.       300.        50.       300.        50.
BLANK card ending plot cards
BEGIN NEW DATA CASE
C         6th of 21 subcases illustrate  HARMONIC FREQUENCY SCAN  by Gabor Furst
C         is related to preceding.  R(F)  --->  L(F).  Basic network is the same
C         as preceding subcase.  But here,  R = 5 ohms is constant.  There is an
C         effort to keep  X  constant by having L vary inversely with frequency.
C         There are 3 points,  and  wL  of 1st is the same as the last.  In  the
C         middle,  there is discrepancy, of course, because  1/w  is not linear.
POWER FREQUENCY, 50., ! Needed so mimimum frequency is recognized as fundamental
HARMONIC FREQUENCY SCAN { Non-negative DELFFS in 25-32 means F in Hz (not log F) 
     1.0     0.0
       1       1       1       0 
  GEN   LOAD                  5.
  LOAD                             10. { L at lower of two frequencies (power F)
BLANK card ending all branches
BLANK card ending all switch cards
14GEN            1.0       50.       0.0  { Note comment and no negative T-start
14GEN            1.0      100.       0.0  { Note comment and no negative T-start
14GEN            1.0      200.       0.0  { Note cols. 21-30 is frequency in Hz
BLANK card ending source cards
NEXT FREQUENCY FOR SERIES RLC       200.  { Elevated frequency for interpolation
  LOAD                             2.5 { L of F-dependent resistance at higher F
BLANK card ending F-dependent series R-L-C branches
-5LOAD  GEN    { -5 ==> 2A6 name pairs for voltage differences (branch V)
  GEN   LOAD   { Names of nodes for voltage output
-1LIN002    { -1 ==> Branch/switch current out;  use A6 component names
C   First  3     output variables are electric-network voltage differences ...
C   Next   1     output variables are branch currents (flowing from the upper ..
C    Step   F [Hz]       LOAD       GEN        LOAD       LOAD
C                        GEN                              TERRA
C      1       50.   .84673302        1.0  .53201804   .1693466
C      2      100.   .72772718        1.0  .68586671  .14554544
C      3      200.   .84673302        1.0  .53201804   .1693466
BLANK card ends output requests (just node voltages, for FREQUENCY SCAN)
BLANK card ending plot cards
BEGIN NEW DATA CASE
C         7th of 21 subcases illustrate  HARMONIC FREQUENCY SCAN  by Gabor Furst
C         is related to preceding.  L(F)  --->  C(F).  Basic network is the same
C         as preceding subcase but with inductance L  replaced by capacitance C.
C         Try to keep  Xc  constant by having C vary inversely with frequency F.
C         There are 3 points,  and  wC  of 1st is the same as the last.  In  the
C         middle,  there is discrepancy, of course, because  1/w  is not linear.
POWER FREQUENCY, 50., ! Needed so mimimum frequency is recognized as fundamental
HARMONIC FREQUENCY SCAN { Non-negative DELFFS in 25-32 means F in Hz (not log F) 
     1.0     0.0
       1       1       1       0 
  GEN   LOAD                  5.
  LOAD                                  400. { C at lower of two freq (power F)
BLANK card ending all branches
BLANK card ending all switch cards
14GEN            1.0       50.       0.0  { Note comment and no negative T-start
14GEN            1.0      100.       0.0  { Note comment and no negative T-start
14GEN            1.0      200.       0.0  { Note cols. 21-30 is frequency in Hz
BLANK card ending source cards
NEXT FREQUENCY FOR SERIES RLC       200.  { Elevated frequency for interpolation
  LOAD                                  100. { C of F-dep capacitanc at higher F
BLANK card ending F-dependent series R-L-C branches
-5GEN   LOAD    { -5 ==> 2A6 name pairs for voltage differences (branch V)
  GEN   LOAD    { Names of nodes for voltage output
-1LIN001LIN002  { -1 ==> Branch/switch current out;  use A6 component names
C  First  3     output variables are electric-network voltage differences (upper voltage minus lower voltage);
C  Next   2     output variables are branch currents (flowing from the upper node to the lower node);
C   Step   F [Hz]       GEN        GEN        LOAD       GEN        LOAD
C                       LOAD                             LOAD       TERRA
C      1       50.   .53201804        1.0  .84673302  .10640361  .10640361
C      2      100.   .68586671        1.0  .72772718  .13717334  .13717334
C      3      200.   .53201804        1.0  .84673302  .10640361  .10640361
BLANK card ends output requests (just node voltages, for FREQUENCY SCAN)
BLANK card ending plot cards
BEGIN NEW DATA CASE
C         8th of 21 subcases illustrate  HARMONIC FREQUENCY SCAN  by Gabor Furst
C         illustrates new F-dependent R, L, and C.  Basic network is the same
C         as preceding subcase but here all 3 parameters R, L, and C are varied.
C         Solutions at lowest and highest frequencies are verified by the two
C         following subcases,  which do not involve  HFS  at all.
POWER FREQUENCY, 50., ! Needed so mimimum frequency is recognized as fundamental
HARMONIC FREQUENCY SCAN { Non-negative DELFFS in 25-32 means F in Hz (not log F) 
     1.0     0.0
       1       1       1       0 
  GEN   LOAD                 5.0             { Constant half of series circuit
  LOAD                       0.0   10.  400. { F-dependent (all 3 R, L, and C)
BLANK card ending all branches
BLANK card ending all switch cards
14GEN            1.0       50.       0.0  { Note comment and no negative T-start
14GEN            1.0      100.       0.0  { Note comment and no negative T-start
14GEN            1.0      500.       0.0  { Note cols. 21-30 is frequency in Hz
BLANK card ending source cards
NEXT FREQUENCY FOR SERIES RLC       500.  { Elevated frequency for interpolation
  LOAD                       45.   2.5  100.  { R, L, C at higher freq (500 Hz)
BLANK card ending F-dependent series R-L-C branches
-5      LOAD    { -5 ==> 2A6 name pairs for voltage differences (branch V)
  LOAD  GEN    { Names of nodes for voltage output
-1      LIN002  { -1 ==> Branch/switch current out;  use A6 component names
C  First  3     output variables are electric-network voltage differences  ...
C  Next   1     output variables are branch currents (flowing from the upper ...
C   Step   F [Hz]       TERRA      LOAD       GEN        LOAD
C                       LOAD                             TERRA
C      1       50.   .69374181  .69374181        1.0  .14404476
C      2      100.   .51459068  .51459068        1.0  .09900818
C      3      500.   .90091274  .90091274        1.0   .0199133
BLANK card ends output requests (just node voltages, for FREQUENCY SCAN)
BLANK card ending plot cards
BEGIN NEW DATA CASE
C         9th of 21 subcases demonstrates correctness of the lowest of all (the
C         power-frequency) solutions of the preceding subcase.   Note  HARMONIC
C         FREQUENCY SCAN  is not used at all.  We just have a phasor solution.         
POWER FREQUENCY, 50., ! Needed so mimimum frequency is recognized as fundamental
     1.0     0.0
       1       1       1       0
  GEN   LOAD                 5.0             { Constant half of series circuit
  LOAD                       0.0   10.  400. { F-dependent (all 3 R, L, and C)
BLANK card ending all branches
BLANK card ending all switch cards
14GEN            1.0       50.       0.0                           -1.
BLANK card ending source cards
  GEN   LOAD   { Names of nodes for voltage output
C     Total network loss  P-loss  by summing injections =   5.187223045425E-02
C Begin steady-state printout of EMTP output variables.  Node voltage outputs ..
C      Bus            Phasor     Angle in                Real         Imaginary
C     name         magnitude      degrees                part              part
C   GEN       0.10000000E+01     0.000000      0.10000000E+01    0.00000000E+00
C   LOAD      0.69374181E+00   -46.072960      0.48127770E+00   -0.49964935E+00
BLANK card ends output requests (just node voltages for this data)
BLANK card ending plot cards
BEGIN NEW DATA CASE
C         10th of 21 subcases is related to the preceding.  But rather than the
C         lowest-frequency,  here we verify the highest-frequency solution of
C         the  HFS  use of subcase number 8.
POWER FREQUENCY, 50., ! Needed so mimimum frequency is recognized as fundamental
     1.0     0.0
       1       1       1       0 
  GEN   LOAD                 5.0             { Constant half of series circuit
  LOAD                       45.   2.5  100.  { R, L, C at higher freq (500 Hz)
BLANK card ending all branches
BLANK card ending all switch cards