BEGIN NEW DATA CASE
C     BENCHMARK DCPR-18
C     Modification of DCPR-1,  with Marti modeling for 1-phase distributed line.
C     This is artificial,  with 1st mode of  DCNEW-4  copied, so answers differ.
PRINTED NUMBER WIDTH, 13, 2,  { Request maximum precision (for 8 output columns)
DIAGNOSTIC           0 9 9 9 9 9 0 9 9 9 9 9 9 9 9 9 9 9 9
 .000100    .020     60.     60.
       1       1       1       1       1      -1
       2      -1       5       5      20      20
  REC                       .001                                               3
-1SEND  REC                                         -2 0
      13      0.47239779450626166835E+03
 -0.157229726196222956E+03  0.126853303346030569E+04  0.588082306827178581E+04
  0.270627673308808407E+05  0.111458688456283317E+06  0.395589243425188717E+06
  0.150323164163496357E+07  0.217374838313002244E+07  0.434556992256038787E+07
  0.110328170351886328E+08  0.236389988397480845E+08  0.309008321141022234E+08
  0.431893002281190038E+09
  0.235701061600344552E+01  0.195173431211496342E+02  0.124846131111627939E+03
  0.613923453349835427E+03  0.269678738574064323E+04  0.102910878111054938E+05
  0.417069229964132082E+05  0.126644834971140075E+06  0.266597235969243651E+06
  0.699297112658407379E+06  0.262993966131300537E+07  0.479765538875125372E+07
  0.813526280583329517E+08
      17      0.85238555800063692627E-03
  0.127924432981992370E+01  0.561914042153726234E+01  0.180297075598248546E+02
  0.346261574528511265E+02  0.548783409592355325E+02  0.765032176718322354E+02
  0.103223467905631171E+03  0.135969275083081897E+03  0.184416687911717634E+03
  0.274482426982707487E+03  0.393670049088725369E+04 -0.312267057014000818E+04
 -0.380620278636049181E+04  0.169176872171332866E+05  0.126711112212722121E+06
 -0.137116666350032279E+06 -0.440898788048811855E+04
  0.108195714206271910E+03  0.425804125825632120E+03  0.671892589284894783E+03
  0.115424991479232875E+04  0.164930073155791996E+04  0.212471092512198550E+04
  0.261396550177039461E+04  0.310670382129902532E+04  0.360827684252849542E+04
  0.409543324291373079E+04  0.459515167691230977E+04  0.461644753586315608E+04
  0.775011064607788876E+04  0.965100526007415078E+04  0.391166014374037768E+05
  0.343819986469708529E+05  0.867321014152550142E+05
C  DUMMY                      1.0
BLANK card finishing all branch cards
  GEN   SEND        -1.0       1.0         { Switch is closed for all time, note
BLANK card ending non-existent switch cards
14GEN           100.       60.                                     -1.
BLANK card terminating program source cards
C       Total network loss  P-loss  by summing injections =   2.272638618099E+00
C                                Output for steady-state phasor switch currents.
C         Node-K    Node-M            I-real            I-imag            I-magn
C          GEN       SEND     0.45452772E-01   -0.30307544E+00    0.30646480E+00
C
C       GEN
C       SEND         100.             100.      .04545277236197  .30646480232032
C  Step      Time        REC          REC          SEND         GEN          REC
C                        TERRA                                             TERRA
C ***      Phasor I(0) =  0.4545277E-01   Switch  "GEN   "  to  "SEND  "  closed
C    0       0.0   .4500984E-4  .4500984E-4        100.        100.  .0450098417
C    1     .1E-3   .5760443E-4  .5760443E-4 99.92894726 99.92894726  .0576044324
C    2     .2E-3   .7011336E-4  .7011336E-4 99.71589003 99.71589003  .0701133563
 1
C  200       .02   .3324991E-3  .3324991E-3 30.90169944 30.90169944  .3324991413
C Variable max :   .3379377E-3  .3379377E-3         100.        100. .3379376777
C Times of max :         .0038        .0038         0.0          0.0       .0038
C Variable min :   -.338271E-3  -.338271E-3 -99.9921044  -99.9921044 -.338270602
C Times of min :         .0121        .0121       .0083        .0083       .0121
  PRINTER PLOT                            { Following plot is nicely sinusoidal:
 194 4. 0.0 20.         REC                     { Axis limits : (-3.383,  3.379)
BLANK card terminating plot cards
BEGIN NEW DATA CASE
BLANK
